@<TRIPOS>MOLECULE
MOL
   24    25     1     0     0
SMALL
bcc


@<TRIPOS>ATOM
      1 C1          15.3590    -1.0030     9.0020 ca         1 MOL       0.025100
      2 C2          16.5550    -0.3770     8.7260 ca         1 MOL      -0.180000
      3 C3          16.5540     0.9810     8.4700 ca         1 MOL       0.005100
      4 C4          14.2000    -0.2480     9.0150 ca         1 MOL      -0.248000
      5 C5          14.2150     1.1420     8.7510 ca         1 MOL       0.123600
      6 C6          15.3910     1.8330     8.4650 ca         1 MOL      -0.021800
      7 C7          15.2630     3.2500     8.2160 cc         1 MOL       0.068600
      8 C8          16.3300     4.2960     7.8630 c3         1 MOL       0.122600
      9 C9          13.9850     3.7940     8.2820 cd         1 MOL      -0.502200
     10 C10         12.8750     3.0230     8.5740 c          1 MOL       0.689700
     11 N1          13.0110     1.7370     8.7990 ns         1 MOL      -0.464100
     12 O1          17.3480     3.1590     5.5400 o          1 MOL      -0.813500
     13 O2          17.3180     5.6220     5.6220 o          1 MOL      -0.813500
     14 O3          15.2290     4.3560     5.3220 o          1 MOL      -0.813500
     15 O4          11.8030     3.5240     8.6220 o          1 MOL      -0.813500
     16 P1          16.5710     4.3660     6.0100 p5         1 MOL       1.028700
     17 Br1         15.3380    -2.9060     9.3680 br         1 MOL      -0.184100
     18 Br2         18.2170     1.9060     8.0840 br         1 MOL      -0.061100
     19 H1          16.0390     5.1930     8.1960 hc         1 MOL       0.088200
     20 H2          17.1950     4.0510     8.3020 hc         1 MOL       0.088200
     21 H3          17.4090    -0.8970     8.7110 ha         1 MOL       0.132000
     22 H4          13.3290    -0.6960     9.2160 ha         1 MOL       0.121000
     23 H5          13.8650     4.7720     8.1130 ha         1 MOL       0.137000
     24 H6          12.2020     1.1890     9.0110 hn         1 MOL       0.285500
@<TRIPOS>BOND
     1     1     2 ar  
     2     1     4 ar  
     3     1    17 1   
     4     2     3 ar  
     5     3     6 ar  
     6     3    18 1   
     7     4     5 ar  
     8     5     6 ar  
     9     5    11 1   
    10     6     7 1   
    11     7     8 1   
    12     7     9 2   
    13     8    16 1   
    14     9    10 1   
    15    10    11 1   
    16    10    15 2   
    17    12    16 1   
    18    13    16 1   
    19    14    16 1   
    20     2    21 1   
    21     4    22 1   
    22     8    19 1   
    23     8    20 1   
    24     9    23 1   
    25    11    24 1   
@<TRIPOS>SUBSTRUCTURE
     1 MOL         1 TEMP              0 ****  ****    0 ROOT
