@<TRIPOS>MOLECULE
MOL
   26    28     1     0     0
SMALL
bcc


@<TRIPOS>ATOM
      1 C1          15.3480    -0.9720     8.9820 ca         1 MOL       0.050100
      2 C2          16.5180    -0.3550     8.7090 ca         1 MOL      -0.024900
      3 C3          16.5540     0.9810     8.4700 ca         1 MOL      -0.046000
      4 C4          14.2000    -0.2480     9.0150 ca         1 MOL      -0.185000
      5 C5          14.2150     1.1420     8.7510 ca         1 MOL       0.170100
      6 C6          15.3910     1.8330     8.4650 ca         1 MOL      -0.107800
      7 C7          15.2630     3.2500     8.2160 cc         1 MOL       0.121600
      8 C8          16.3300     4.2960     7.8630 c3         1 MOL       0.032600
      9 C9          13.9850     3.7940     8.2820 cd         1 MOL      -0.525200
     10 C10         12.8750     3.0230     8.5740 c          1 MOL       0.729800
     11 O1          13.0110     1.7370     8.7990 os         1 MOL      -0.386200
     12 O2          17.3480     3.1590     5.5400 o          1 MOL      -0.822833
     13 O3          17.3180     5.6220     5.6220 o          1 MOL      -0.822833
     14 O4          15.2290     4.3560     5.3220 o          1 MOL      -0.822833
     15 O5          11.8030     3.5240     8.6220 o          1 MOL      -0.762500
     16 P1          16.5710     4.3660     6.0100 p5         1 MOL       1.052700
     17 O6          15.5350    -2.2650     9.1660 os         1 MOL      -0.363900
     18 H1          16.0390     5.1930     8.1960 hc         1 MOL       0.085200
     19 H2          17.1950     4.0510     8.3020 hc         1 MOL       0.085200
     20 H3          13.3290    -0.6960     9.2160 ha         1 MOL       0.142000
     21 H4          13.8650     4.7720     8.1130 ha         1 MOL       0.133000
     22 C11         16.9520    -2.5640     8.9780 c3         1 MOL       0.325200
     23 H5          17.4360     1.4090     8.2720 ha         1 MOL       0.212000
     24 O7          17.5070    -1.2400     8.7050 os         1 MOL      -0.337900
     25 H6          17.1140    -3.2960     8.0410 h2         1 MOL       0.035700
     26 H7          17.4270    -3.0290     9.9770 h2         1 MOL       0.035700
@<TRIPOS>BOND
     1     1     2 ar  
     2     1     4 ar  
     3     1    17 1   
     4     2     3 ar  
     5     2    24 1   
     6     3     6 ar  
     7     4     5 ar  
     8     5     6 ar  
     9     5    11 1   
    10     6     7 1   
    11     7     8 1   
    12     7     9 2   
    13     8    16 1   
    14     9    10 1   
    15    10    11 1   
    16    10    15 2   
    17    12    16 1   
    18    13    16 1   
    19    14    16 1   
    20    17    22 1   
    21    22    24 1   
    22     3    23 1   
    23     4    20 1   
    24     8    18 1   
    25     8    19 1   
    26     9    21 1   
    27    22    25 1   
    28    22    26 1   
@<TRIPOS>SUBSTRUCTURE
     1 MOL         1 TEMP              0 ****  ****    0 ROOT
