ligand_10
  xed2sdf           3D
 
 26 27  0  0  0  0  0  0  0  0999 V2000
   15.3590   -1.0030    9.0019 C   0  0  0  0  0  0  0  0  0  0  0  0
   16.5549   -0.3771    8.7260 C   0  0  0  0  0  0  0  0  0  0  0  0
   16.5539    0.9810    8.4700 C   0  0  0  0  0  0  0  0  0  0  0  0
   14.2000   -0.2480    9.0149 C   0  0  0  0  0  0  0  0  0  0  0  0
   14.2150    1.1420    8.7511 C   0  0  0  0  0  0  0  0  0  0  0  0
   15.3910    1.8331    8.4651 C   0  0  0  0  0  0  0  0  0  0  0  0
   15.2631    3.2499    8.2161 C   0  0  0  0  0  0  0  0  0  0  0  0
   16.3299    4.2961    7.8630 C   0  0  0  0  0  0  0  0  0  0  0  0
   13.9850    3.7940    8.2820 C   0  0  0  0  0  0  0  0  0  0  0  0
   12.8750    3.0230    8.5739 C   0  0  0  0  0  0  0  0  0  0  0  0
   13.0109    1.7370    8.7990 O   0  0  0  0  0  0  0  0  0  0  0  0
   17.3481    3.1591    5.5400 O   0  5  0  0  0  0  0  0  0  0  0  0
   17.3179    5.6220    5.6220 O   0  5  0  0  0  0  0  0  0  0  0  0
   15.2290    4.3560    5.3221 O   0  0  0  0  0  0  0  0  0  0  0  0
   11.8030    3.5241    8.6220 O   0  0  0  0  0  0  0  0  0  0  0  0
   16.5709    4.3660    6.0099 P   0  0  0  0  0  0  0  0  0  0  0  0
   15.3300   -2.4900    9.2880 C   0  0  0  0  0  0  0  0  0  0  0  0
   17.7350    1.5540    8.2069 F   0  0  0  0  0  0  0  0  0  0  0  0
   16.0390    5.1930    8.1960 H   0  0  0  0  0  0  0  0  0  0  0  0
   17.1949    4.0510    8.3020 H   0  0  0  0  0  0  0  0  0  0  0  0
   17.4090   -0.8970    8.7110 H   0  0  0  0  0  0  0  0  0  0  0  0
   13.3290   -0.6961    9.2160 H   0  0  0  0  0  0  0  0  0  0  0  0
   13.8650    4.7720    8.1130 H   0  0  0  0  0  0  0  0  0  0  0  0
   14.2100   -2.9140    9.2100 H   0  0  0  0  0  0  0  0  0  0  0  0
   15.7510   -2.6870   10.3951 H   0  0  0  0  0  0  0  0  0  0  0  0
   16.0220   -3.0650    8.4940 H   0  0  0  0  0  0  0  0  0  0  0  0
  1  2  2  0
  1  4  1  0
  1 17  1  0
  2  3  1  0
  3  6  2  0
  3 18  1  0
  4  5  2  0
  5  6  1  0
  5 11  1  0
  6  7  1  0
  7  8  1  0
  7  9  2  0
  8 16  1  0
  9 10  1  0
 10 11  1  0
 10 15  2  0
 12 16  1  0
 13 16  1  0
 14 16  2  0
  2 21  1  0
  4 22  1  0
  8 19  1  0
  8 20  1  0
  9 23  1  0
 17 24  1  0
 17 25  1  0
 17 26  1  0
M  CHG  2  12  -1  13  -1
M  END
>  <Favorite_cresset>
false

>  <MW_cresset>
270.2

>  <#Atoms_cresset>
18

>  <SlogP_cresset>
1.8

>  <TPSA_cresset>
95.5

>  <Flexibility_cresset>
2

>  <#RB_cresset>
2

>  <Rof5_cresset>
0

>  <Filename_cresset>
ligand_10.pdb

>  <Confs_cresset>
0

>  <Poses_cresset>
0

>  <Activity (Primary)_cresset>
No Primary Activity Set

$$$$
