ligand_13
  xed2sdf           3D
 
 30 31  0  0  0  0  0  0  0  0999 V2000
   15.3590   -1.0031    9.0020 C   0  0  0  0  0  0  0  0  0  0  0  0
   16.5550   -0.3770    8.7260 C   0  0  0  0  0  0  0  0  0  0  0  0
   16.5540    0.9810    8.4701 C   0  0  0  0  0  0  0  0  0  0  0  0
   14.2001   -0.2480    9.0150 C   0  0  0  0  0  0  0  0  0  0  0  0
   14.2150    1.1420    8.7510 C   0  0  0  0  0  0  0  0  0  0  0  0
   15.3909    1.8330    8.4650 C   0  0  0  0  0  0  0  0  0  0  0  0
   15.2630    3.2500    8.2160 C   0  0  0  0  0  0  0  0  0  0  0  0
   16.3299    4.2960    7.8629 C   0  0  0  0  0  0  0  0  0  0  0  0
   13.9850    3.7939    8.2820 C   0  0  0  0  0  0  0  0  0  0  0  0
   12.8750    3.0230    8.5739 C   0  0  0  0  0  0  0  0  0  0  0  0
   13.0111    1.7371    8.7991 N   0  0  0  0  0  0  0  0  0  0  0  0
   17.3480    3.1590    5.5401 O   0  5  0  0  0  0  0  0  0  0  0  0
   17.3180    5.6220    5.6219 O   0  5  0  0  0  0  0  0  0  0  0  0
   15.2290    4.3560    5.3219 O   0  0  0  0  0  0  0  0  0  0  0  0
   11.8030    3.5240    8.6220 O   0  0  0  0  0  0  0  0  0  0  0  0
   16.5711    4.3659    6.0100 P   0  0  0  0  0  0  0  0  0  0  0  0
   15.3309   -2.4901    9.2889 C   0  0  0  0  0  0  0  0  0  0  0  0
   17.9471    1.5330    8.2220 C   0  0  0  0  0  0  0  0  0  0  0  0
   16.0390    5.1930    8.1961 H   0  0  0  0  0  0  0  0  0  0  0  0
   17.1950    4.0510    8.3020 H   0  0  0  0  0  0  0  0  0  0  0  0
   17.4090   -0.8970    8.7110 H   0  0  0  0  0  0  0  0  0  0  0  0
   13.3290   -0.6959    9.2159 H   0  0  0  0  0  0  0  0  0  0  0  0
   13.8649    4.7720    8.1130 H   0  0  0  0  0  0  0  0  0  0  0  0
   12.2020    1.1890    9.0111 H   0  0  0  0  0  0  0  0  0  0  0  0
   14.2010   -2.8910    9.3470 H   0  0  0  0  0  0  0  0  0  0  0  0
   15.8800   -2.7010   10.3350 H   0  0  0  0  0  0  0  0  0  0  0  0
   15.9110   -3.0720    8.4150 H   0  0  0  0  0  0  0  0  0  0  0  0
   18.7570    0.6650    8.0440 H   0  0  0  0  0  0  0  0  0  0  0  0
   17.9610    2.2229    7.2479 H   0  0  0  0  0  0  0  0  0  0  0  0
   18.2929    2.1670    9.1810 H   0  0  0  0  0  0  0  0  0  0  0  0
  1  2  2  0
  1  4  1  0
  1 17  1  0
  2  3  1  0
  3  6  2  0
  3 18  1  0
  4  5  2  0
  5  6  1  0
  5 11  1  0
  6  7  1  0
  7  8  1  0
  7  9  2  0
  8 16  1  0
  9 10  1  0
 10 11  1  0
 10 15  2  0
 12 16  1  0
 13 16  1  0
 14 16  2  0
  2 21  1  0
  4 22  1  0
  8 19  1  0
  8 20  1  0
  9 23  1  0
 11 24  1  0
 17 25  1  0
 17 26  1  0
 17 27  1  0
 18 28  1  0
 18 29  1  0
 18 30  1  0
M  CHG  2  12  -1  13  -1
M  END
>  <Favorite_cresset>
false

>  <MW_cresset>
265.2

>  <#Atoms_cresset>
18

>  <SlogP_cresset>
1.7

>  <TPSA_cresset>
98.3

>  <Flexibility_cresset>
2

>  <#RB_cresset>
2

>  <Rof5_cresset>
0

>  <Filename_cresset>
ligand_13.pdb

>  <Confs_cresset>
0

>  <Poses_cresset>
0

>  <Activity (Primary)_cresset>
No Primary Activity Set

$$$$
