ligand_1
  xed2sdf           3D
 
 29 30  0  0  0  0  0  0  0  0999 V2000
   15.3590   -1.0031    9.0020 C   0  0  0  0  0  0  0  0  0  0  0  0
   16.5549   -0.3770    8.7260 C   0  0  0  0  0  0  0  0  0  0  0  0
   16.5540    0.9811    8.4700 C   0  0  0  0  0  0  0  0  0  0  0  0
   14.2000   -0.2480    9.0150 C   0  0  0  0  0  0  0  0  0  0  0  0
   14.2150    1.1420    8.7511 C   0  0  0  0  0  0  0  0  0  0  0  0
   15.3910    1.8330    8.4650 C   0  0  0  0  0  0  0  0  0  0  0  0
   15.2630    3.2499    8.2159 C   0  0  0  0  0  0  0  0  0  0  0  0
   16.3300    4.2960    7.8630 C   0  0  0  0  0  0  0  0  0  0  0  0
   13.9850    3.7940    8.2819 C   0  0  0  0  0  0  0  0  0  0  0  0
   12.8750    3.0230    8.5740 C   0  0  0  0  0  0  0  0  0  0  0  0
   13.0111    1.7370    8.7989 O   0  0  0  0  0  0  0  0  0  0  0  0
   17.3479    3.1590    5.5400 O   0  5  0  0  0  0  0  0  0  0  0  0
   17.3180    5.6220    5.6220 O   0  5  0  0  0  0  0  0  0  0  0  0
   15.2289    4.3561    5.3220 O   0  0  0  0  0  0  0  0  0  0  0  0
   11.8030    3.5241    8.6220 O   0  0  0  0  0  0  0  0  0  0  0  0
   16.5710    4.3660    6.0100 P   0  0  0  0  0  0  0  0  0  0  0  0
   15.2730   -2.4910    9.3010 C   0  0  0  0  0  0  0  0  0  0  0  0
   16.0390    5.1931    8.1960 H   0  0  0  0  0  0  0  0  0  0  0  0
   17.1950    4.0509    8.3020 H   0  0  0  0  0  0  0  0  0  0  0  0
   17.8690   -1.1370    8.6920 C   0  0  0  0  0  0  0  0  0  0  0  0
   13.3290   -0.6960    9.2161 H   0  0  0  0  0  0  0  0  0  0  0  0
   13.8650    4.7719    8.1129 H   0  0  0  0  0  0  0  0  0  0  0  0
   17.4361    1.4091    8.2720 H   0  0  0  0  0  0  0  0  0  0  0  0
   14.1600   -2.8990    9.1130 H   0  0  0  0  0  0  0  0  0  0  0  0
   15.5769   -2.6810   10.4460 H   0  0  0  0  0  0  0  0  0  0  0  0
   16.0321   -3.0869    8.5870 H   0  0  0  0  0  0  0  0  0  0  0  0
   18.8019   -0.3830    8.7500 H   0  0  0  0  0  0  0  0  0  0  0  0
   17.9330   -1.7691    7.6749 H   0  0  0  0  0  0  0  0  0  0  0  0
   17.9140   -1.8890    9.6260 H   0  0  0  0  0  0  0  0  0  0  0  0
  1  2  2  0
  1  4  1  0
  1 17  1  0
  2  3  1  0
  2 20  1  0
  3  6  2  0
  4  5  2  0
  5  6  1  0
  5 11  1  0
  6  7  1  0
  7  8  1  0
  7  9  2  0
  8 16  1  0
  9 10  1  0
 10 11  1  0
 10 15  2  0
 12 16  1  0
 13 16  1  0
 14 16  2  0
  3 23  1  0
  4 21  1  0
  8 18  1  0
  8 19  1  0
  9 22  1  0
 17 24  1  0
 17 25  1  0
 17 26  1  0
 20 27  1  0
 20 28  1  0
 20 29  1  0
M  CHG  2  12  -1  13  -1
M  END
>  <Favorite_cresset>
false

>  <MW_cresset>
266.2

>  <#Atoms_cresset>
18

>  <SlogP_cresset>
1.7

>  <TPSA_cresset>
95.5

>  <Flexibility_cresset>
2

>  <#RB_cresset>
2

>  <Rof5_cresset>
0

>  <Filename_cresset>
ligand_1.pdb

>  <Confs_cresset>
0

>  <Poses_cresset>
0

>  <Activity (Primary)_cresset>
No Primary Activity Set

$$$$
