ligand_5
  xed2sdf           3D
 
 26 27  0  0  0  0  0  0  0  0999 V2000
   15.3590   -1.0030    9.0019 C   0  0  0  0  0  0  0  0  0  0  0  0
   16.5550   -0.3770    8.7260 C   0  0  0  0  0  0  0  0  0  0  0  0
   16.5539    0.9810    8.4699 C   0  0  0  0  0  0  0  0  0  0  0  0
   14.2000   -0.2481    9.0150 C   0  0  0  0  0  0  0  0  0  0  0  0
   14.2149    1.1421    8.7511 C   0  0  0  0  0  0  0  0  0  0  0  0
   15.3910    1.8330    8.4650 C   0  0  0  0  0  0  0  0  0  0  0  0
   15.2630    3.2500    8.2160 C   0  0  0  0  0  0  0  0  0  0  0  0
   16.3300    4.2959    7.8630 C   0  0  0  0  0  0  0  0  0  0  0  0
   13.9849    3.7940    8.2820 C   0  0  0  0  0  0  0  0  0  0  0  0
   12.8750    3.0230    8.5740 C   0  0  0  0  0  0  0  0  0  0  0  0
   13.0110    1.7370    8.7990 O   0  0  0  0  0  0  0  0  0  0  0  0
   17.3480    3.1590    5.5399 O   0  5  0  0  0  0  0  0  0  0  0  0
   17.3180    5.6219    5.6221 O   0  5  0  0  0  0  0  0  0  0  0  0
   15.2290    4.3560    5.3220 O   0  0  0  0  0  0  0  0  0  0  0  0
   11.8030    3.5240    8.6221 O   0  0  0  0  0  0  0  0  0  0  0  0
   16.5710    4.3661    6.0101 P   0  0  0  0  0  0  0  0  0  0  0  0
   16.0391    5.1930    8.1960 H   0  0  0  0  0  0  0  0  0  0  0  0
   17.1950    4.0509    8.3020 H   0  0  0  0  0  0  0  0  0  0  0  0
   17.8690   -1.1370    8.6920 C   0  0  0  0  0  0  0  0  0  0  0  0
   13.3290   -0.6959    9.2160 H   0  0  0  0  0  0  0  0  0  0  0  0
   13.8650    4.7720    8.1130 H   0  0  0  0  0  0  0  0  0  0  0  0
   17.4359    1.4090    8.2720 H   0  0  0  0  0  0  0  0  0  0  0  0
   18.8020   -0.3830    8.7500 H   0  0  0  0  0  0  0  0  0  0  0  0
   17.9330   -1.7690    7.6751 H   0  0  0  0  0  0  0  0  0  0  0  0
   17.9139   -1.8890    9.6260 H   0  0  0  0  0  0  0  0  0  0  0  0
   15.3300   -1.9851    9.1900 H   0  0  0  0  0  0  0  0  0  0  0  0
  1  2  2  0
  1  4  1  0
  2  3  1  0
  2 19  1  0
  3  6  2  0
  4  5  2  0
  5  6  1  0
  5 11  1  0
  6  7  1  0
  7  8  1  0
  7  9  2  0
  8 16  1  0
  9 10  1  0
 10 11  1  0
 10 15  2  0
 12 16  1  0
 13 16  1  0
 14 16  2  0
  1 26  1  0
  3 22  1  0
  4 20  1  0
  8 17  1  0
  8 18  1  0
  9 21  1  0
 19 23  1  0
 19 24  1  0
 19 25  1  0
M  CHG  2  12  -1  13  -1
M  END
>  <Favorite_cresset>
false

>  <MW_cresset>
252.2

>  <#Atoms_cresset>
17

>  <SlogP_cresset>
1.4

>  <TPSA_cresset>
95.5

>  <Flexibility_cresset>
2

>  <#RB_cresset>
2

>  <Rof5_cresset>
0

>  <Filename_cresset>
ligand_5.pdb

>  <Confs_cresset>
0

>  <Poses_cresset>
0

>  <Activity (Primary)_cresset>
No Primary Activity Set

$$$$
