@<TRIPOS>MOLECULE
MOL
   24    25     1     0     0
SMALL
bcc


@<TRIPOS>ATOM
      1 C1          15.3590    -1.0030     9.0020 ca         1 MOL      -0.116000
      2 C2          16.5550    -0.3770     8.7260 ca         1 MOL      -0.220000
      3 C3          16.5540     0.9810     8.4700 ca         1 MOL      -0.073000
      4 C4          14.2000    -0.2480     9.0150 ca         1 MOL      -0.262000
      5 C5          14.2150     1.1420     8.7510 ca         1 MOL       0.111600
      6 C6          15.3910     1.8330     8.4650 ca         1 MOL      -0.091800
      7 C7          15.2630     3.2500     8.2160 cc         1 MOL       0.125600
      8 C8          16.3300     4.2960     7.8630 c3         1 MOL       0.004600
      9 C9          13.9850     3.7940     8.2820 cd         1 MOL      -0.500200
     10 C10         12.8750     3.0230     8.5740 c          1 MOL       0.699700
     11 N1          13.0110     1.7370     8.7990 ns         1 MOL      -0.476100
     12 O1          17.3480     3.1590     5.5400 o          1 MOL      -0.826833
     13 O2          17.3180     5.6220     5.6220 o          1 MOL      -0.826833
     14 O3          15.2290     4.3560     5.3220 o          1 MOL      -0.826833
     15 O4          11.8030     3.5240     8.6220 o          1 MOL      -0.820500
     16 P1          16.5710     4.3660     6.0100 p5         1 MOL       1.061700
     17 H1          16.0390     5.1930     8.1960 hc         1 MOL       0.080200
     18 H2          17.1950     4.0510     8.3020 hc         1 MOL       0.080200
     19 H3          17.4090    -0.8970     8.7110 ha         1 MOL       0.104000
     20 H4          13.3290    -0.6960     9.2160 ha         1 MOL       0.095000
     21 H5          13.8650     4.7720     8.1130 ha         1 MOL       0.128000
     22 H6          12.2020     1.1890     9.0110 hn         1 MOL       0.281500
     23 H7          15.3300    -1.9850     9.1900 ha         1 MOL       0.084000
     24 H8          17.4360     1.4090     8.2720 ha         1 MOL       0.185000
@<TRIPOS>BOND
     1     1     2 ar  
     2     1     4 ar  
     3     2     3 ar  
     4     3     6 ar  
     5     4     5 ar  
     6     5     6 ar  
     7     5    11 1   
     8     6     7 1   
     9     7     8 1   
    10     7     9 2   
    11     8    16 1   
    12     9    10 1   
    13    10    11 1   
    14    10    15 2   
    15    12    16 1   
    16    13    16 1   
    17    14    16 1   
    18     1    23 1   
    19     2    19 1   
    20     3    24 1   
    21     4    20 1   
    22     8    17 1   
    23     8    18 1   
    24     9    21 1   
    25    11    22 1   
@<TRIPOS>SUBSTRUCTURE
     1 MOL         1 TEMP              0 ****  ****    0 ROOT
