@<TRIPOS>MOLECULE
MOL
   26    27     1     0     0
SMALL
bcc


@<TRIPOS>ATOM
      1 C1          15.3590    -1.0030     9.0020 ca         1 MOL      -0.125000
      2 C2          16.5550    -0.3770     8.7260 ca         1 MOL      -0.159300
      3 C3          16.5540     0.9810     8.4700 ca         1 MOL      -0.073000
      4 C4          14.2000    -0.2480     9.0150 ca         1 MOL      -0.210000
      5 C5          14.2150     1.1420     8.7510 ca         1 MOL       0.166100
      6 C6          15.3910     1.8330     8.4650 ca         1 MOL      -0.101800
      7 C7          15.2630     3.2500     8.2160 cc         1 MOL       0.123600
      8 C8          16.3300     4.2960     7.8630 c3         1 MOL       0.025600
      9 C9          13.9850     3.7940     8.2820 cd         1 MOL      -0.527200
     10 C10         12.8750     3.0230     8.5740 c          1 MOL       0.729800
     11 O1          13.0110     1.7370     8.7990 os         1 MOL      -0.388200
     12 O2          17.3480     3.1590     5.5400 o          1 MOL      -0.824833
     13 O3          17.3180     5.6220     5.6220 o          1 MOL      -0.824833
     14 O4          15.2290     4.3560     5.3220 o          1 MOL      -0.824833
     15 O5          11.8030     3.5240     8.6220 o          1 MOL      -0.768500
     16 P1          16.5710     4.3660     6.0100 p5         1 MOL       1.056700
     17 H1          16.0390     5.1930     8.1960 hc         1 MOL       0.082200
     18 H2          17.1950     4.0510     8.3020 hc         1 MOL       0.082200
     19 C11         17.8690    -1.1370     8.6920 c3         1 MOL      -0.029800
     20 H3          13.3290    -0.6960     9.2160 ha         1 MOL       0.116000
     21 H4          13.8650     4.7720     8.1130 ha         1 MOL       0.130000
     22 H5          17.4360     1.4090     8.2720 ha         1 MOL       0.186000
     23 H6          18.8020    -0.3830     8.7500 hc         1 MOL       0.023367
     24 H7          17.9330    -1.7690     7.6750 hc         1 MOL       0.023367
     25 H8          17.9140    -1.8890     9.6260 hc         1 MOL       0.023367
     26 H9          15.3300    -1.9850     9.1900 ha         1 MOL       0.091000
@<TRIPOS>BOND
     1     1     2 ar  
     2     1     4 ar  
     3     2     3 ar  
     4     2    19 1   
     5     3     6 ar  
     6     4     5 ar  
     7     5     6 ar  
     8     5    11 1   
     9     6     7 1   
    10     7     8 1   
    11     7     9 2   
    12     8    16 1   
    13     9    10 1   
    14    10    11 1   
    15    10    15 2   
    16    12    16 1   
    17    13    16 1   
    18    14    16 1   
    19     1    26 1   
    20     3    22 1   
    21     4    20 1   
    22     8    17 1   
    23     8    18 1   
    24     9    21 1   
    25    19    23 1   
    26    19    24 1   
    27    19    25 1   
@<TRIPOS>SUBSTRUCTURE
     1 MOL         1 TEMP              0 ****  ****    0 ROOT
