ligand_14
  -Sire-202300500

 23 24  0  0  0  0  0  0  0  0999 V2000
   15.3590   -1.0031    9.0020 C   0  0  0  0  0  0  0  0  0  0  0  0
   16.5550   -0.3770    8.7261 C   0  0  0  0  0  0  0  0  0  0  0  0
   16.5760    1.0100    8.4620 N   0  0  0  0  0  0  0  0  0  0  0  0
   14.2000   -0.2479    9.0150 C   0  0  0  0  0  0  0  0  0  0  0  0
   14.2150    1.1419    8.7510 C   0  0  0  0  0  0  0  0  0  0  0  0
   15.3909    1.8330    8.4651 C   0  0  0  0  0  0  0  0  0  0  0  0
   15.2631    3.2500    8.2160 C   0  0  0  0  0  0  0  0  0  0  0  0
   16.3301    4.2960    7.8629 C   0  0  0  0  0  0  0  0  0  0  0  0
   13.9850    3.7940    8.2820 C   0  0  0  0  0  0  0  0  0  0  0  0
   12.8749    3.0230    8.5740 C   0  0  0  0  0  0  0  0  0  0  0  0
   13.0109    1.7370    8.7989 C   0  0  0  0  0  0  0  0  0  0  0  0
   17.3481    3.1590    5.5400 O   0  5  0  0  0  0  0  0  0  0  0  0
   17.3180    5.6220    5.6220 O   0  5  0  0  0  0  0  0  0  0  0  0
   15.2290    4.3559    5.3220 O   0  0  0  0  0  0  0  0  0  0  0  0
   16.5709    4.3659    6.0101 P   0  0  0  0  0  0  0  0  0  0  0  0
   16.0391    5.1931    8.1960 H   0  0  0  0  0  0  0  0  0  0  0  0
   17.1950    4.0511    8.3020 H   0  0  0  0  0  0  0  0  0  0  0  0
   17.4090   -0.8970    8.7110 H   0  0  0  0  0  0  0  0  0  0  0  0
   13.3290   -0.6961    9.2160 H   0  0  0  0  0  0  0  0  0  0  0  0
   13.8649    4.7721    8.1130 H   0  0  0  0  0  0  0  0  0  0  0  0
   15.3301   -1.9840    9.1901 H   0  0  0  0  0  0  0  0  0  0  0  0
   11.9690    3.4450    8.6140 H   0  0  0  0  0  0  0  0  0  0  0  0
   12.1961    1.1949    9.0090 H   0  0  0  0  0  0  0  0  0  0  0  0
  1  2  2  0         
  1  4  1  0         
  1 21  1  0         
  2  3  1  0         
  2 18  1  0         
  3  6  2  0         
  4  5  2  0         
  4 19  1  0         
  5  6  1  0         
  5 11  1  0         
  6  7  1  0         
  7  8  1  0         
  7  9  2  0         
  8 15  1  0         
  8 16  1  0         
  8 17  1  0         
  9 10  1  0         
  9 20  1  0         
 10 11  2  0         
 10 22  1  0         
 11 23  1  0         
 12 15  1  0         
 13 15  1  0         
 14 15  2  0         
M  END
> <Confs_cresset>
0

> <Favorite_cresset>
false

> <TPSA_cresset>
82.1

> <MW_cresset>
221.2

> <Flexibility_cresset>
2

> <#RB_cresset>
2

> <Rof5_cresset>
0

> <Filename_cresset>
ligand_14.pdb

> <SlogP_cresset>
1.9

> <Poses_cresset>
0

> <Activity (Primary)_cresset>
No Primary Activity Set

> <#Atoms_cresset>
15

$$$$
