ligand_15
  -Sire-202300500

 23 24  0  0  0  0  0  0  0  0999 V2000
   15.3590   -1.0030    9.0020 C   0  0  0  0  0  0  0  0  0  0  0  0
   16.5550   -0.3771    8.7260 C   0  0  0  0  0  0  0  0  0  0  0  0
   16.5540    0.9809    8.4701 C   0  0  0  0  0  0  0  0  0  0  0  0
   14.2000   -0.2480    9.0150 C   0  0  0  0  0  0  0  0  0  0  0  0
   14.2150    1.1420    8.7511 C   0  0  0  0  0  0  0  0  0  0  0  0
   15.3910    1.8330    8.4649 C   0  0  0  0  0  0  0  0  0  0  0  0
   15.2629    3.2501    8.2159 C   0  0  0  0  0  0  0  0  0  0  0  0
   16.3300    4.2959    7.8630 C   0  0  0  0  0  0  0  0  0  0  0  0
   13.9850    3.7940    8.2821 C   0  0  0  0  0  0  0  0  0  0  0  0
   12.8750    3.0230    8.5740 C   0  0  0  0  0  0  0  0  0  0  0  0
   13.0110    1.7371    8.7991 N   0  0  0  0  0  0  0  0  0  0  0  0
   17.3480    3.1590    5.5401 O   0  5  0  0  0  0  0  0  0  0  0  0
   17.3180    5.6220    5.6220 O   0  5  0  0  0  0  0  0  0  0  0  0
   15.2290    4.3560    5.3220 O   0  0  0  0  0  0  0  0  0  0  0  0
   16.5710    4.3660    6.0100 P   0  0  0  0  0  0  0  0  0  0  0  0
   16.0390    5.1930    8.1960 H   0  0  0  0  0  0  0  0  0  0  0  0
   17.1950    4.0510    8.3020 H   0  0  0  0  0  0  0  0  0  0  0  0
   17.4090   -0.8971    8.7110 H   0  0  0  0  0  0  0  0  0  0  0  0
   13.3290   -0.6960    9.2160 H   0  0  0  0  0  0  0  0  0  0  0  0
   13.8650    4.7719    8.1129 H   0  0  0  0  0  0  0  0  0  0  0  0
   15.3300   -1.9850    9.1901 H   0  0  0  0  0  0  0  0  0  0  0  0
   17.4360    1.4089    8.2720 H   0  0  0  0  0  0  0  0  0  0  0  0
   11.9690    3.4450    8.6140 H   0  0  0  0  0  0  0  0  0  0  0  0
  1  2  2  0         
  1  4  1  0         
  1 21  1  0         
  2  3  1  0         
  2 18  1  0         
  3  6  2  0         
  3 22  1  0         
  4  5  2  0         
  4 19  1  0         
  5  6  1  0         
  5 11  1  0         
  6  7  1  0         
  7  8  1  0         
  7  9  2  0         
  8 15  1  0         
  8 16  1  0         
  8 17  1  0         
  9 10  1  0         
  9 20  1  0         
 10 11  2  0         
 10 23  1  0         
 12 15  1  0         
 13 15  1  0         
 14 15  2  0         
M  END
> <Confs_cresset>
0

> <Favorite_cresset>
false

> <TPSA_cresset>
82.1

> <MW_cresset>
221.2

> <Flexibility_cresset>
2

> <#RB_cresset>
2

> <Rof5_cresset>
0

> <Filename_cresset>
ligand_15.pdb

> <SlogP_cresset>
1.9

> <Poses_cresset>
0

> <Activity (Primary)_cresset>
No Primary Activity Set

> <#Atoms_cresset>
15

$$$$
