ligand_2
  -Sire-202300500

 27 28  0  0  0  0  0  0  0  0999 V2000
   15.3590   -1.0029    9.0019 C   0  0  0  0  0  0  0  0  0  0  0  0
   16.5550   -0.3770    8.7260 C   0  0  0  0  0  0  0  0  0  0  0  0
   16.5539    0.9810    8.4700 C   0  0  0  0  0  0  0  0  0  0  0  0
   14.1999   -0.2481    9.0150 C   0  0  0  0  0  0  0  0  0  0  0  0
   14.2151    1.1421    8.7510 C   0  0  0  0  0  0  0  0  0  0  0  0
   15.3910    1.8330    8.4651 C   0  0  0  0  0  0  0  0  0  0  0  0
   15.2631    3.2499    8.2160 C   0  0  0  0  0  0  0  0  0  0  0  0
   16.3300    4.2961    7.8630 C   0  0  0  0  0  0  0  0  0  0  0  0
   13.9850    3.7940    8.2820 C   0  0  0  0  0  0  0  0  0  0  0  0
   12.8750    3.0230    8.5741 C   0  0  0  0  0  0  0  0  0  0  0  0
   13.0111    1.7369    8.7990 O   0  0  0  0  0  0  0  0  0  0  0  0
   17.3481    3.1590    5.5400 O   0  5  0  0  0  0  0  0  0  0  0  0
   17.3180    5.6221    5.6220 O   0  5  0  0  0  0  0  0  0  0  0  0
   15.2290    4.3560    5.3220 O   0  0  0  0  0  0  0  0  0  0  0  0
   11.8030    3.5239    8.6220 O   0  0  0  0  0  0  0  0  0  0  0  0
   16.5710    4.3660    6.0100 P   0  0  0  0  0  0  0  0  0  0  0  0
   15.2701   -2.3111    9.2620 O   0  0  0  0  0  0  0  0  0  0  0  0
   16.0390    5.1930    8.1960 H   0  0  0  0  0  0  0  0  0  0  0  0
   17.1950    4.0511    8.3019 H   0  0  0  0  0  0  0  0  0  0  0  0
   17.4090   -0.8969    8.7110 H   0  0  0  0  0  0  0  0  0  0  0  0
   13.3290   -0.6960    9.2160 H   0  0  0  0  0  0  0  0  0  0  0  0
   13.8651    4.7719    8.1130 H   0  0  0  0  0  0  0  0  0  0  0  0
   16.4400   -3.1350    9.0859 C   0  0  0  0  0  0  0  0  0  0  0  0
   17.4360    1.4091    8.2720 H   0  0  0  0  0  0  0  0  0  0  0  0
   17.2919   -2.8060    9.8640 H   0  0  0  0  0  0  0  0  0  0  0  0
   16.8539   -3.0300    7.9640 H   0  0  0  0  0  0  0  0  0  0  0  0
   16.1460   -4.2810    9.2919 H   0  0  0  0  0  0  0  0  0  0  0  0
  1  2  2  0         
  1  4  1  0         
  1 17  1  0         
  2  3  1  0         
  2 20  1  0         
  3  6  2  0         
  3 24  1  0         
  4  5  2  0         
  4 21  1  0         
  5  6  1  0         
  5 11  1  0         
  6  7  1  0         
  7  8  1  0         
  7  9  2  0         
  8 16  1  0         
  8 18  1  0         
  8 19  1  0         
  9 10  1  0         
  9 22  1  0         
 10 11  1  0         
 10 15  2  0         
 12 16  1  0         
 13 16  1  0         
 14 16  2  0         
 17 23  1  0         
 23 25  1  0         
 23 26  1  0         
 23 27  1  0         
M  END
> <Confs_cresset>
0

> <Favorite_cresset>
false

> <TPSA_cresset>
104.7

> <MW_cresset>
268.2

> <Flexibility_cresset>
2.5

> <#RB_cresset>
3

> <Rof5_cresset>
0

> <Filename_cresset>
ligand_2.pdb

> <SlogP_cresset>
1.1

> <Poses_cresset>
0

> <Activity (Primary)_cresset>
No Primary Activity Set

> <#Atoms_cresset>
18

$$$$
