ligand_4
  -Sire-202300500

 26 27  0  0  0  0  0  0  0  0999 V2000
   15.3590   -1.0029    9.0020 C   0  0  0  0  0  0  0  0  0  0  0  0
   16.5551   -0.3770    8.7260 C   0  0  0  0  0  0  0  0  0  0  0  0
   16.5540    0.9810    8.4700 C   0  0  0  0  0  0  0  0  0  0  0  0
   14.1999   -0.2481    9.0150 C   0  0  0  0  0  0  0  0  0  0  0  0
   14.2149    1.1420    8.7509 C   0  0  0  0  0  0  0  0  0  0  0  0
   15.3910    1.8331    8.4650 C   0  0  0  0  0  0  0  0  0  0  0  0
   15.2630    3.2501    8.2159 C   0  0  0  0  0  0  0  0  0  0  0  0
   16.3300    4.2960    7.8630 C   0  0  0  0  0  0  0  0  0  0  0  0
   13.9850    3.7941    8.2820 C   0  0  0  0  0  0  0  0  0  0  0  0
   12.8750    3.0230    8.5740 C   0  0  0  0  0  0  0  0  0  0  0  0
   13.0110    1.7371    8.7990 O   0  0  0  0  0  0  0  0  0  0  0  0
   17.3480    3.1590    5.5400 O   0  5  0  0  0  0  0  0  0  0  0  0
   17.3181    5.6220    5.6220 O   0  5  0  0  0  0  0  0  0  0  0  0
   15.2290    4.3560    5.3220 O   0  0  0  0  0  0  0  0  0  0  0  0
   11.8029    3.5240    8.6219 O   0  0  0  0  0  0  0  0  0  0  0  0
   16.5710    4.3660    6.0099 P   0  0  0  0  0  0  0  0  0  0  0  0
   15.2699   -2.3111    9.2620 C   0  0  0  0  0  0  0  0  0  0  0  0
   16.0390    5.1930    8.1960 H   0  0  0  0  0  0  0  0  0  0  0  0
   17.1950    4.0510    8.3020 H   0  0  0  0  0  0  0  0  0  0  0  0
   17.4091   -0.8970    8.7110 H   0  0  0  0  0  0  0  0  0  0  0  0
   13.3290   -0.6960    9.2159 H   0  0  0  0  0  0  0  0  0  0  0  0
   13.8650    4.7720    8.1131 H   0  0  0  0  0  0  0  0  0  0  0  0
   17.4360    1.4090    8.2720 H   0  0  0  0  0  0  0  0  0  0  0  0
   14.1400   -2.7161    9.3140 H   0  0  0  0  0  0  0  0  0  0  0  0
   15.8020   -2.5300   10.3150 H   0  0  0  0  0  0  0  0  0  0  0  0
   15.8440   -2.9300    8.4080 H   0  0  0  0  0  0  0  0  0  0  0  0
  1  2  2  0         
  1  4  1  0         
  1 17  1  0         
  2  3  1  0         
  2 20  1  0         
  3  6  2  0         
  3 23  1  0         
  4  5  2  0         
  4 21  1  0         
  5  6  1  0         
  5 11  1  0         
  6  7  1  0         
  7  8  1  0         
  7  9  2  0         
  8 16  1  0         
  8 18  1  0         
  8 19  1  0         
  9 10  1  0         
  9 22  1  0         
 10 11  1  0         
 10 15  2  0         
 12 16  1  0         
 13 16  1  0         
 14 16  2  0         
 17 24  1  0         
 17 25  1  0         
 17 26  1  0         
M  END
> <Confs_cresset>
0

> <Favorite_cresset>
false

> <TPSA_cresset>
95.5

> <MW_cresset>
252.2

> <Flexibility_cresset>
2

> <#RB_cresset>
2

> <Rof5_cresset>
0

> <Filename_cresset>
ligand_4.pdb

> <SlogP_cresset>
1.4

> <Poses_cresset>
0

> <Activity (Primary)_cresset>
No Primary Activity Set

> <#Atoms_cresset>
17

$$$$
