ligand_8
  -Sire-202300500

 23 24  0  0  0  0  0  0  0  0999 V2000
   15.3589   -1.0030    9.0019 C   0  0  0  0  0  0  0  0  0  0  0  0
   16.5551   -0.3770    8.7259 C   0  0  0  0  0  0  0  0  0  0  0  0
   16.5540    0.9811    8.4700 C   0  0  0  0  0  0  0  0  0  0  0  0
   14.1999   -0.2480    9.0150 C   0  0  0  0  0  0  0  0  0  0  0  0
   14.2150    1.1421    8.7510 C   0  0  0  0  0  0  0  0  0  0  0  0
   15.3909    1.8330    8.4650 C   0  0  0  0  0  0  0  0  0  0  0  0
   15.2630    3.2501    8.2160 C   0  0  0  0  0  0  0  0  0  0  0  0
   16.3301    4.2960    7.8630 C   0  0  0  0  0  0  0  0  0  0  0  0
   13.9850    3.7940    8.2820 C   0  0  0  0  0  0  0  0  0  0  0  0
   12.8750    3.0230    8.5740 C   0  0  0  0  0  0  0  0  0  0  0  0
   13.0111    1.7371    8.7991 O   0  0  0  0  0  0  0  0  0  0  0  0
   17.3480    3.1590    5.5400 O   0  5  0  0  0  0  0  0  0  0  0  0
   17.3180    5.6220    5.6220 O   0  5  0  0  0  0  0  0  0  0  0  0
   15.2289    4.3560    5.3219 O   0  0  0  0  0  0  0  0  0  0  0  0
   11.8030    3.5240    8.6220 O   0  0  0  0  0  0  0  0  0  0  0  0
   16.5709    4.3660    6.0100 P   0  0  0  0  0  0  0  0  0  0  0  0
   15.3250   -2.3140    9.2550 F   0  0  0  0  0  0  0  0  0  0  0  0
   17.7279    1.5620    8.2070 F   0  0  0  0  0  0  0  0  0  0  0  0
   16.0390    5.1931    8.1961 H   0  0  0  0  0  0  0  0  0  0  0  0
   17.1950    4.0509    8.3020 H   0  0  0  0  0  0  0  0  0  0  0  0
   17.4090   -0.8970    8.7111 H   0  0  0  0  0  0  0  0  0  0  0  0
   13.3290   -0.6959    9.2160 H   0  0  0  0  0  0  0  0  0  0  0  0
   13.8650    4.7721    8.1129 H   0  0  0  0  0  0  0  0  0  0  0  0
  1  2  2  0         
  1  4  1  0         
  1 17  1  0         
  2  3  1  0         
  2 21  1  0         
  3  6  2  0         
  3 18  1  0         
  4  5  2  0         
  4 22  1  0         
  5  6  1  0         
  5 11  1  0         
  6  7  1  0         
  7  8  1  0         
  7  9  2  0         
  8 16  1  0         
  8 19  1  0         
  8 20  1  0         
  9 10  1  0         
  9 23  1  0         
 10 11  1  0         
 10 15  2  0         
 12 16  1  0         
 13 16  1  0         
 14 16  2  0         
M  END
> <Confs_cresset>
0

> <Favorite_cresset>
false

> <TPSA_cresset>
95.5

> <MW_cresset>
274.1

> <Flexibility_cresset>
2

> <#RB_cresset>
2

> <Rof5_cresset>
0

> <Filename_cresset>
ligand_8.pdb

> <SlogP_cresset>
1.9

> <Poses_cresset>
0

> <Activity (Primary)_cresset>
No Primary Activity Set

> <#Atoms_cresset>
18

$$$$
