ligand_9
  -Sire-202300500

 26 27  0  0  0  0  0  0  0  0999 V2000
   15.3590   -1.0030    9.0020 C   0  0  0  0  0  0  0  0  0  0  0  0
   16.5551   -0.3770    8.7260 C   0  0  0  0  0  0  0  0  0  0  0  0
   16.5540    0.9810    8.4700 C   0  0  0  0  0  0  0  0  0  0  0  0
   14.1999   -0.2480    9.0150 C   0  0  0  0  0  0  0  0  0  0  0  0
   14.2151    1.1420    8.7511 C   0  0  0  0  0  0  0  0  0  0  0  0
   15.3909    1.8329    8.4650 C   0  0  0  0  0  0  0  0  0  0  0  0
   15.2631    3.2500    8.2160 C   0  0  0  0  0  0  0  0  0  0  0  0
   16.3300    4.2960    7.8630 C   0  0  0  0  0  0  0  0  0  0  0  0
   13.9851    3.7940    8.2820 C   0  0  0  0  0  0  0  0  0  0  0  0
   12.8749    3.0231    8.5740 C   0  0  0  0  0  0  0  0  0  0  0  0
   13.0110    1.7370    8.7990 O   0  0  0  0  0  0  0  0  0  0  0  0
   17.3480    3.1590    5.5400 O   0  5  0  0  0  0  0  0  0  0  0  0
   17.3181    5.6220    5.6220 O   0  5  0  0  0  0  0  0  0  0  0  0
   15.2290    4.3559    5.3220 O   0  0  0  0  0  0  0  0  0  0  0  0
   11.8030    3.5239    8.6220 O   0  0  0  0  0  0  0  0  0  0  0  0
   16.5710    4.3660    6.0100 P   0  0  0  0  0  0  0  0  0  0  0  0
   15.3310   -2.4900    9.2890 C   0  0  0  0  0  0  0  0  0  0  0  0
   18.2169    1.9060    8.0840 Br  0  0  0  0  0  0  0  0  0  0  0  0
   16.0390    5.1929    8.1960 H   0  0  0  0  0  0  0  0  0  0  0  0
   17.1950    4.0509    8.3020 H   0  0  0  0  0  0  0  0  0  0  0  0
   17.4091   -0.8971    8.7110 H   0  0  0  0  0  0  0  0  0  0  0  0
   13.3290   -0.6960    9.2160 H   0  0  0  0  0  0  0  0  0  0  0  0
   13.8650    4.7720    8.1130 H   0  0  0  0  0  0  0  0  0  0  0  0
   14.2010   -2.8880    9.3640 H   0  0  0  0  0  0  0  0  0  0  0  0
   15.8950   -2.7030   10.3260 H   0  0  0  0  0  0  0  0  0  0  0  0
   15.8960   -3.0730    8.4060 H   0  0  0  0  0  0  0  0  0  0  0  0
  1  2  2  0         
  1  4  1  0         
  1 17  1  0         
  2  3  1  0         
  2 21  1  0         
  3  6  2  0         
  3 18  1  0         
  4  5  2  0         
  4 22  1  0         
  5  6  1  0         
  5 11  1  0         
  6  7  1  0         
  7  8  1  0         
  7  9  2  0         
  8 16  1  0         
  8 19  1  0         
  8 20  1  0         
  9 10  1  0         
  9 23  1  0         
 10 11  1  0         
 10 15  2  0         
 12 16  1  0         
 13 16  1  0         
 14 16  2  0         
 17 24  1  0         
 17 25  1  0         
 17 26  1  0         
M  END
> <Confs_cresset>
0

> <Favorite_cresset>
false

> <TPSA_cresset>
95.5

> <MW_cresset>
331.1

> <Flexibility_cresset>
2

> <#RB_cresset>
2

> <Rof5_cresset>
0

> <Filename_cresset>
ligand_9.pdb

> <SlogP_cresset>
2.2

> <Poses_cresset>
0

> <Activity (Primary)_cresset>
No Primary Activity Set

> <#Atoms_cresset>
18

$$$$
