@<TRIPOS>MOLECULE
MOL
   30    31     1     0     0
SMALL
bcc


@<TRIPOS>ATOM
      1 C1          15.3590    -1.0030     9.0020 ca         1 MOL      -0.069300
      2 C2          16.5550    -0.3770     8.7260 ca         1 MOL      -0.218000
      3 C3          16.5540     0.9810     8.4700 ca         1 MOL      -0.016300
      4 C4          14.2000    -0.2480     9.0150 ca         1 MOL      -0.265000
      5 C5          14.2150     1.1420     8.7510 ca         1 MOL       0.118600
      6 C6          15.3910     1.8330     8.4650 ca         1 MOL      -0.079800
      7 C7          15.2630     3.2500     8.2160 cc         1 MOL       0.101600
      8 C8          16.3300     4.2960     7.8630 c3         1 MOL       0.064600
      9 C9          13.9850     3.7940     8.2820 cd         1 MOL      -0.508200
     10 C10         12.8750     3.0230     8.5740 c          1 MOL       0.693700
     11 N1          13.0110     1.7370     8.7990 ns         1 MOL      -0.472100
     12 O1          17.3480     3.1590     5.5400 o          1 MOL      -0.818833
     13 O2          17.3180     5.6220     5.6220 o          1 MOL      -0.818833
     14 O3          15.2290     4.3560     5.3220 o          1 MOL      -0.818833
     15 O4          11.8030     3.5240     8.6220 o          1 MOL      -0.823500
     16 P1          16.5710     4.3660     6.0100 p5         1 MOL       1.041700
     17 C11         15.3310    -2.4900     9.2890 c3         1 MOL      -0.030800
     18 C12         17.9470     1.5330     8.2220 c3         1 MOL      -0.065800
     19 H1          16.0390     5.1930     8.1960 hc         1 MOL       0.078200
     20 H2          17.1950     4.0510     8.3020 hc         1 MOL       0.078200
     21 H3          17.4090    -0.8970     8.7110 ha         1 MOL       0.102000
     22 H4          13.3290    -0.6960     9.2160 ha         1 MOL       0.099000
     23 H5          13.8650     4.7720     8.1130 ha         1 MOL       0.129000
     24 H6          12.2020     1.1890     9.0110 hn         1 MOL       0.279500
     25 H7          14.2010    -2.8910     9.3470 hc         1 MOL       0.017367
     26 H8          15.8800    -2.7010    10.3350 hc         1 MOL       0.017367
     27 H9          15.9110    -3.0720     8.4150 hc         1 MOL       0.017367
     28 H10         18.7570     0.6650     8.0440 hc         1 MOL       0.056033
     29 H11         17.9610     2.2230     7.2480 hc         1 MOL       0.056033
     30 H12         18.2930     2.1670     9.1810 hc         1 MOL       0.056033
@<TRIPOS>BOND
     1     1     2 ar  
     2     1     4 ar  
     3     1    17 1   
     4     2     3 ar  
     5     3     6 ar  
     6     3    18 1   
     7     4     5 ar  
     8     5     6 ar  
     9     5    11 1   
    10     6     7 1   
    11     7     8 1   
    12     7     9 2   
    13     8    16 1   
    14     9    10 1   
    15    10    11 1   
    16    10    15 2   
    17    12    16 1   
    18    13    16 1   
    19    14    16 1   
    20     2    21 1   
    21     4    22 1   
    22     8    19 1   
    23     8    20 1   
    24     9    23 1   
    25    11    24 1   
    26    17    25 1   
    27    17    26 1   
    28    17    27 1   
    29    18    28 1   
    30    18    29 1   
    31    18    30 1   
@<TRIPOS>SUBSTRUCTURE
     1 MOL         1 TEMP              0 ****  ****    0 ROOT
