@<TRIPOS>MOLECULE
MOL
   23    24     1     0     0
SMALL
bcc


@<TRIPOS>ATOM
      1 C1          15.3590    -1.0030     9.0020 ca         1 MOL      -0.221300
      2 C2          16.5550    -0.3770     8.7260 ca         1 MOL       0.243200
      3 N1          16.5760     1.0100     8.4620 nb         1 MOL      -0.619000
      4 C3          14.2000    -0.2480     9.0150 ca         1 MOL      -0.227000
      5 C4          14.2150     1.1420     8.7510 ca         1 MOL      -0.017300
      6 C5          15.3910     1.8330     8.4650 ca         1 MOL       0.320600
      7 C6          15.2630     3.2500     8.2160 ca         1 MOL      -0.013600
      8 C7          16.3300     4.2960     7.8630 c3         1 MOL       0.107700
      9 C8          13.9850     3.7940     8.2820 ca         1 MOL      -0.276000
     10 C9          12.8750     3.0230     8.5740 ca         1 MOL      -0.051000
     11 C10         13.0110     1.7370     8.7990 ca         1 MOL      -0.394000
     12 O1          17.3480     3.1590     5.5400 o          1 MOL      -0.817500
     13 O2          17.3180     5.6220     5.6220 o          1 MOL      -0.817500
     14 O3          15.2290     4.3560     5.3220 o          1 MOL      -0.817500
     15 P1          16.5710     4.3660     6.0100 p5         1 MOL       1.038700
     16 H1          16.0390     5.1930     8.1960 hc         1 MOL       0.085200
     17 H2          17.1950     4.0510     8.3020 hc         1 MOL       0.085200
     18 H3          17.4090    -0.8970     8.7110 h4         1 MOL      -0.025900
     19 H4          13.3290    -0.6960     9.2160 ha         1 MOL       0.088000
     20 H5          13.8650     4.7720     8.1130 ha         1 MOL       0.103000
     21 H6          15.3300    -1.9840     9.1900 ha         1 MOL       0.080000
     22 H7          11.9690     3.4450     8.6140 ha         1 MOL       0.065000
     23 H8          12.1960     1.1950     9.0090 ha         1 MOL       0.079000
@<TRIPOS>BOND
     1     1     2 ar  
     2     1     4 ar  
     3     2     3 ar  
     4     3     6 ar  
     5     4     5 ar  
     6     5     6 ar  
     7     5    11 ar  
     8     6     7 ar  
     9     7     8 1   
    10     7     9 ar  
    11     8    15 1   
    12     9    10 ar  
    13    10    11 ar  
    14    12    15 1   
    15    13    15 1   
    16    14    15 1   
    17     1    21 1   
    18     2    18 1   
    19     4    19 1   
    20     8    16 1   
    21     8    17 1   
    22     9    20 1   
    23    10    22 1   
    24    11    23 1   
@<TRIPOS>SUBSTRUCTURE
     1 MOL         1 TEMP              0 ****  ****    0 ROOT
