@<TRIPOS>MOLECULE
MOL
   23    24     1     0     0
SMALL
bcc


@<TRIPOS>ATOM
      1 C1          15.3590    -1.0030     9.0020 ca         1 MOL      -0.115000
      2 C2          16.5550    -0.3770     8.7260 ca         1 MOL      -0.268000
      3 C3          16.5540     0.9810     8.4700 ca         1 MOL      -0.057000
      4 C4          14.2000    -0.2480     9.0150 ca         1 MOL      -0.284300
      5 C5          14.2150     1.1420     8.7510 ca         1 MOL       0.482600
      6 C6          15.3910     1.8330     8.4650 ca         1 MOL      -0.219300
      7 C7          15.2630     3.2500     8.2160 ca         1 MOL       0.074700
      8 C8          16.3300     4.2960     7.8630 c3         1 MOL       0.029700
      9 C9          13.9850     3.7940     8.2820 ca         1 MOL      -0.403300
     10 C10         12.8750     3.0230     8.5740 ca         1 MOL       0.436200
     11 N1          13.0110     1.7370     8.7990 nb         1 MOL      -0.879000
     12 O1          17.3480     3.1590     5.5400 o          1 MOL      -0.821833
     13 O2          17.3180     5.6220     5.6220 o          1 MOL      -0.821833
     14 O3          15.2290     4.3560     5.3220 o          1 MOL      -0.821833
     15 P1          16.5710     4.3660     6.0100 p5         1 MOL       1.050700
     16 H1          16.0390     5.1930     8.1960 hc         1 MOL       0.082700
     17 H2          17.1950     4.0510     8.3020 hc         1 MOL       0.082700
     18 H3          17.4090    -0.8970     8.7110 ha         1 MOL       0.090000
     19 H4          13.3290    -0.6960     9.2160 ha         1 MOL       0.098000
     20 H5          13.8650     4.7720     8.1130 ha         1 MOL       0.107000
     21 H6          15.3300    -1.9850     9.1900 ha         1 MOL       0.073000
     22 H7          17.4360     1.4090     8.2720 ha         1 MOL       0.134000
     23 H8          11.9690     3.4450     8.6140 h4         1 MOL      -0.051900
@<TRIPOS>BOND
     1     1     2 ar  
     2     1     4 ar  
     3     2     3 ar  
     4     3     6 ar  
     5     4     5 ar  
     6     5     6 ar  
     7     5    11 ar  
     8     6     7 ar  
     9     7     8 1   
    10     7     9 ar  
    11     8    15 1   
    12     9    10 ar  
    13    10    11 ar  
    14    12    15 1   
    15    13    15 1   
    16    14    15 1   
    17     1    21 1   
    18     2    18 1   
    19     3    22 1   
    20     4    19 1   
    21     8    16 1   
    22     8    17 1   
    23     9    20 1   
    24    10    23 1   
@<TRIPOS>SUBSTRUCTURE
     1 MOL         1 TEMP              0 ****  ****    0 ROOT
