ligand_6
  xed2sdf           3D
 
 30 31  0  0  0  0  0  0  0  0999 V2000
   22.1751   12.8681    5.6220 C   0  0  0  0  0  0  0  0  0  0  0  0
   21.6592   14.1121    6.3420 C   0  0  0  0  0  0  0  0  0  0  0  0
   20.7989   14.9552    5.6719 C   0  0  0  0  0  0  0  0  0  0  0  0
   20.3001   16.1039    6.3159 C   0  0  0  0  0  0  0  0  0  0  0  0
   18.8320   17.9018    6.1689 C   0  0  0  0  0  0  0  0  0  0  0  0
   19.1060   18.1959    7.4759 C   0  0  0  0  0  0  0  0  0  0  0  0
   20.0540   17.5200    8.2050 C   0  0  0  0  0  0  0  0  0  0  0  0
   20.2319   17.8401    9.7020 C   0  0  0  0  0  0  0  0  0  0  0  0
   20.6099   16.3500    7.5861 C   0  0  0  0  0  0  0  0  0  0  0  0
   21.4759   15.4720    8.2770 C   0  0  0  0  0  0  0  0  0  0  0  0
   21.9980   14.3712    7.6339 C   0  0  0  0  0  0  0  0  0  0  0  0
   19.4320   16.8780    5.5870 O   0  0  0  0  0  0  0  0  0  0  0  0
   18.0859   18.5098    5.5472 O   0  0  0  0  0  0  0  0  0  0  0  0
   19.1800   17.1950   12.0480 O   0  5  0  0  0  0  0  0  0  0  0  0
   19.3271   15.3740   10.4919 O   0  5  0  0  0  0  0  0  0  0  0  0
   17.5828   17.2032   10.2270 O   0  0  0  0  0  0  0  0  0  0  0  0
   18.9950   16.8721   10.7399 P   0  0  0  0  0  0  0  0  0  0  0  0
   21.6569   12.7281    4.7780 H   0  0  0  0  0  0  0  0  0  0  0  0
   23.1420   12.9862    5.3950 H   0  0  0  0  0  0  0  0  0  0  0  0
   22.0640   12.0748    6.2222 H   0  0  0  0  0  0  0  0  0  0  0  0
   21.1610   17.5979    9.9829 H   0  0  0  0  0  0  0  0  0  0  0  0
   20.0919   18.8189    9.8502 H   0  0  0  0  0  0  0  0  0  0  0  0
   20.5300   14.7511    4.7309 H   0  0  0  0  0  0  0  0  0  0  0  0
   18.5957   18.9331    7.9190 H   0  0  0  0  0  0  0  0  0  0  0  0
   22.1812   15.5047    9.6459 C   0  0  0  0  0  0  0  0  0  0  0  0
   17.3350   18.1539   10.4427 H   0  0  0  0  0  0  0  0  0  0  0  0
   22.6188   13.7473    8.1117 H   0  0  0  0  0  0  0  0  0  0  0  0
   23.1694   16.1611    9.4732 H   0  0  0  0  0  0  0  0  0  0  0  0
   22.5465   14.4166    9.9959 H   0  0  0  0  0  0  0  0  0  0  0  0
   21.6866   15.9261   10.6455 H   0  0  0  0  0  0  0  0  0  0  0  0
  1  2  1  0
  2  3  2  0
  2 11  1  0
  3  4  1  0
  4  9  2  0
  4 12  1  0
  5  6  1  0
  5 12  1  0
  5 13  2  0
  6  7  2  0
  7  8  1  0
  7  9  1  0
  8 17  1  0
  9 10  1  0
 10 11  2  0
 10 25  1  0
 14 17  1  0
 15 17  1  0
 16 17  1  0
  1 18  1  0
  1 19  1  0
  1 20  1  0
  3 23  1  0
  6 24  1  0
  8 21  1  0
  8 22  1  0
 11 27  1  0
 16 26  1  0
 25 28  1  0
 25 29  1  0
 25 30  1  0
M  CHG  2  14  -1  15  -1
M  END
>  <Favorite_cresset>
false

>  <Protein_cresset>
6D15_P

>  <MW_cresset>
267.2

>  <#Atoms_cresset>
18

>  <SlogP_cresset>
1.7

>  <TPSA_cresset>
92.6

>  <Flexibility_cresset>
3

>  <#RB_cresset>
3

>  <Rof5_cresset>
0

>  <Confs_cresset>
0

>  <Poses_cresset>
0

>  <Activity (Primary)_cresset>
No Primary Activity Set

$$$$
