ligand_8
  xed2sdf           3D
 
 24 25  0  0  0  0  0  0  0  0999 V2000
   22.1336   13.0194    5.7270 F   0  0  0  0  0  0  0  0  0  0  0  0
   21.6591   14.1121    6.3421 C   0  0  0  0  0  0  0  0  0  0  0  0
   20.7991   14.9551    5.6719 C   0  0  0  0  0  0  0  0  0  0  0  0
   20.3001   16.1039    6.3159 C   0  0  0  0  0  0  0  0  0  0  0  0
   18.8319   17.9018    6.1688 C   0  0  0  0  0  0  0  0  0  0  0  0
   19.1061   18.1959    7.4759 C   0  0  0  0  0  0  0  0  0  0  0  0
   20.0539   17.5200    8.2051 C   0  0  0  0  0  0  0  0  0  0  0  0
   20.2320   17.8400    9.7020 C   0  0  0  0  0  0  0  0  0  0  0  0
   20.6099   16.3501    7.5860 C   0  0  0  0  0  0  0  0  0  0  0  0
   21.4761   15.4721    8.2771 C   0  0  0  0  0  0  0  0  0  0  0  0
   21.9981   14.3711    7.6339 C   0  0  0  0  0  0  0  0  0  0  0  0
   19.4321   16.8778    5.5869 O   0  0  0  0  0  0  0  0  0  0  0  0
   18.0859   18.5100    5.5473 O   0  0  0  0  0  0  0  0  0  0  0  0
   19.1801   17.1950   12.0480 O   0  5  0  0  0  0  0  0  0  0  0  0
   19.3269   15.3741   10.4918 O   0  5  0  0  0  0  0  0  0  0  0  0
   17.5830   17.2030   10.2269 O   0  0  0  0  0  0  0  0  0  0  0  0
   18.9951   16.8719   10.7399 P   0  0  0  0  0  0  0  0  0  0  0  0
   21.1611   17.5979    9.9830 H   0  0  0  0  0  0  0  0  0  0  0  0
   20.0920   18.8189    9.8502 H   0  0  0  0  0  0  0  0  0  0  0  0
   20.5300   14.7509    4.7309 H   0  0  0  0  0  0  0  0  0  0  0  0
   18.5960   18.9329    7.9190 H   0  0  0  0  0  0  0  0  0  0  0  0
   21.8469   15.6688    9.5429 F   0  0  0  0  0  0  0  0  0  0  0  0
   17.3351   18.1539   10.4425 H   0  0  0  0  0  0  0  0  0  0  0  0
   22.6154   13.7517    8.1200 H   0  0  0  0  0  0  0  0  0  0  0  0
  1  2  1  0
  2  3  2  0
  2 11  1  0
  3  4  1  0
  4  9  2  0
  4 12  1  0
  5  6  1  0
  5 12  1  0
  5 13  2  0
  6  7  2  0
  7  8  1  0
  7  9  1  0
  8 17  1  0
  9 10  1  0
 10 11  2  0
 10 22  1  0
 14 17  1  0
 15 17  1  0
 16 17  1  0
  3 20  1  0
  6 21  1  0
  8 18  1  0
  8 19  1  0
 11 24  1  0
 16 23  1  0
M  CHG  2  14  -1  15  -1
M  END
>  <Favorite_cresset>
false

>  <Protein_cresset>
6D15_P

>  <MW_cresset>
275.1

>  <#Atoms_cresset>
18

>  <SlogP_cresset>
1.9

>  <TPSA_cresset>
92.6

>  <Flexibility_cresset>
3

>  <#RB_cresset>
3

>  <Rof5_cresset>
0

>  <Confs_cresset>
0

>  <Poses_cresset>
0

>  <Activity (Primary)_cresset>
No Primary Activity Set

$$$$
