ligand_3
  xed2sdf           3D
 
 27 29  0  0  0  0  0  0  0  0999 V2000
   22.2439   13.0036    5.9275 O   0  0  0  0  0  0  0  0  0  0  0  0
   21.6591   14.1121    6.3419 C   0  0  0  0  0  0  0  0  0  0  0  0
   20.7988   14.9551    5.6720 C   0  0  0  0  0  0  0  0  0  0  0  0
   20.2999   16.1041    6.3159 C   0  0  0  0  0  0  0  0  0  0  0  0
   18.8320   17.9018    6.1689 C   0  0  0  0  0  0  0  0  0  0  0  0
   19.1058   18.1960    7.4760 C   0  0  0  0  0  0  0  0  0  0  0  0
   20.0540   17.5200    8.2050 C   0  0  0  0  0  0  0  0  0  0  0  0
   20.2319   17.8398    9.7020 C   0  0  0  0  0  0  0  0  0  0  0  0
   20.6099   16.3501    7.5861 C   0  0  0  0  0  0  0  0  0  0  0  0
   21.4760   15.4720    8.2770 C   0  0  0  0  0  0  0  0  0  0  0  0
   21.9980   14.3711    7.6340 C   0  0  0  0  0  0  0  0  0  0  0  0
   22.8326   13.4409    8.0798 O   0  0  0  0  0  0  0  0  0  0  0  0
   19.4320   16.8779    5.5870 O   0  0  0  0  0  0  0  0  0  0  0  0
   18.0861   18.5100    5.5470 O   0  0  0  0  0  0  0  0  0  0  0  0
   19.1801   17.1950   12.0479 O   0  5  0  0  0  0  0  0  0  0  0  0
   19.3268   15.3741   10.4920 O   0  5  0  0  0  0  0  0  0  0  0  0
   17.5830   17.2029   10.2269 O   0  0  0  0  0  0  0  0  0  0  0  0
   18.9951   16.8719   10.7401 P   0  0  0  0  0  0  0  0  0  0  0  0
   21.1610   17.5979    9.9830 H   0  0  0  0  0  0  0  0  0  0  0  0
   20.0920   18.8191    9.8502 H   0  0  0  0  0  0  0  0  0  0  0  0
   20.5302   14.7511    4.7309 H   0  0  0  0  0  0  0  0  0  0  0  0
   18.5959   18.9330    7.9190 H   0  0  0  0  0  0  0  0  0  0  0  0
   21.7100   15.6499    9.2329 H   0  0  0  0  0  0  0  0  0  0  0  0
   17.3350   18.1539   10.4426 H   0  0  0  0  0  0  0  0  0  0  0  0
   23.0978   12.4961    6.9978 C   0  0  0  0  0  0  0  0  0  0  0  0
   24.2530   12.5311    6.6746 H   0  0  0  0  0  0  0  0  0  0  0  0
   22.7721   11.3849    7.3126 H   0  0  0  0  0  0  0  0  0  0  0  0
  1  2  1  0
  1 25  1  0
  2  3  2  0
  2 11  1  0
  3  4  1  0
  4  9  2  0
  4 13  1  0
  5  6  1  0
  5 13  1  0
  5 14  2  0
  6  7  2  0
  7  8  1  0
  7  9  1  0
  8 18  1  0
  9 10  1  0
 10 11  2  0
 11 12  1  0
 12 25  1  0
 15 18  1  0
 16 18  1  0
 17 18  1  0
  3 21  1  0
  6 22  1  0
  8 19  1  0
  8 20  1  0
 10 23  1  0
 17 24  1  0
 25 26  1  0
 25 27  1  0
M  CHG  2  15  -1  16  -1
M  END
>  <Favorite_cresset>
false

>  <Protein_cresset>
6D15_P

>  <MW_cresset>
283.2

>  <#Atoms_cresset>
19

>  <SlogP_cresset>
0.8

>  <TPSA_cresset>
111.1

>  <Flexibility_cresset>
3.2

>  <#RB_cresset>
3

>  <Rof5_cresset>
0

>  <Confs_cresset>
0

>  <Poses_cresset>
0

>  <Activity (Primary)_cresset>
No Primary Activity Set

$$$$
