ligand_15
  xed2sdf           3D
 
 24 25  0  0  0  0  0  0  0  0999 V2000
   21.6590   14.1121    6.3420 C   0  0  0  0  0  0  0  0  0  0  0  0
   20.7988   14.9551    5.6718 C   0  0  0  0  0  0  0  0  0  0  0  0
   20.3000   16.1040    6.3161 C   0  0  0  0  0  0  0  0  0  0  0  0
   18.8319   17.9018    6.1689 C   0  0  0  0  0  0  0  0  0  0  0  0
   19.1059   18.1961    7.4760 C   0  0  0  0  0  0  0  0  0  0  0  0
   20.0541   17.5200    8.2051 C   0  0  0  0  0  0  0  0  0  0  0  0
   20.2320   17.8400    9.7020 C   0  0  0  0  0  0  0  0  0  0  0  0
   20.6099   16.3501    7.5859 C   0  0  0  0  0  0  0  0  0  0  0  0
   21.4760   15.4720    8.2769 C   0  0  0  0  0  0  0  0  0  0  0  0
   21.9980   14.3710    7.6340 C   0  0  0  0  0  0  0  0  0  0  0  0
   19.4321   16.8778    5.5870 N   0  0  0  0  0  0  0  0  0  0  0  0
   19.1800   17.1950   12.0480 O   0  5  0  0  0  0  0  0  0  0  0  0
   19.3271   15.3741   10.4919 O   0  5  0  0  0  0  0  0  0  0  0  0
   17.5829   17.2030   10.2270 O   0  0  0  0  0  0  0  0  0  0  0  0
   18.9951   16.8720   10.7399 P   0  0  0  0  0  0  0  0  0  0  0  0
   21.1610   17.5978    9.9830 H   0  0  0  0  0  0  0  0  0  0  0  0
   20.0920   18.8190    9.8502 H   0  0  0  0  0  0  0  0  0  0  0  0
   20.5302   14.7509    4.7310 H   0  0  0  0  0  0  0  0  0  0  0  0
   18.5959   18.9330    7.9190 H   0  0  0  0  0  0  0  0  0  0  0  0
   21.7100   15.6498    9.2328 H   0  0  0  0  0  0  0  0  0  0  0  0
   17.3351   18.1539   10.4426 H   0  0  0  0  0  0  0  0  0  0  0  0
   22.0261   13.3038    5.8819 H   0  0  0  0  0  0  0  0  0  0  0  0
   22.6176   13.7551    8.1206 H   0  0  0  0  0  0  0  0  0  0  0  0
   18.1675   18.4493    5.6603 H   0  0  0  0  0  0  0  0  0  0  0  0
  1  2  2  0
  1 10  1  0
  2  3  1  0
  3  8  2  0
  3 11  1  0
  4  5  1  0
  4 11  2  0
  5  6  2  0
  6  7  1  0
  6  8  1  0
  7 15  1  0
  8  9  1  0
  9 10  2  0
 12 15  1  0
 13 15  1  0
 14 15  1  0
  1 22  1  0
  2 18  1  0
  4 24  1  0
  5 19  1  0
  7 16  1  0
  7 17  1  0
  9 20  1  0
 10 23  1  0
 14 21  1  0
M  CHG  2  12  -1  13  -1
M  END
>  <Favorite_cresset>
false

>  <Protein_cresset>
6D15_P

>  <MW_cresset>
222.2

>  <#Atoms_cresset>
15

>  <SlogP_cresset>
1.9

>  <TPSA_cresset>
79.2

>  <Flexibility_cresset>
3

>  <#RB_cresset>
3

>  <Rof5_cresset>
0

>  <Confs_cresset>
0

>  <Poses_cresset>
0

>  <Activity (Primary)_cresset>
No Primary Activity Set

$$$$
