ligand_12
  xed2sdf           3D
 
 28 29  0  0  0  0  0  0  0  0999 V2000
   21.6592   14.1121    6.3421 C   0  0  0  0  0  0  0  0  0  0  0  0
   20.7989   14.9552    5.6719 C   0  0  0  0  0  0  0  0  0  0  0  0
   20.3000   16.1040    6.3160 C   0  0  0  0  0  0  0  0  0  0  0  0
   18.8319   17.9019    6.1690 C   0  0  0  0  0  0  0  0  0  0  0  0
   19.1059   18.1961    7.4762 C   0  0  0  0  0  0  0  0  0  0  0  0
   20.0541   17.5201    8.2050 C   0  0  0  0  0  0  0  0  0  0  0  0
   20.2319   17.8399    9.7019 C   0  0  0  0  0  0  0  0  0  0  0  0
   20.6100   16.3501    7.5860 C   0  0  0  0  0  0  0  0  0  0  0  0
   21.4759   15.4720    8.2769 C   0  0  0  0  0  0  0  0  0  0  0  0
   21.9979   14.3711    7.6338 C   0  0  0  0  0  0  0  0  0  0  0  0
   19.4319   16.8779    5.5870 N   0  0  0  0  0  0  0  0  0  0  0  0
   18.0860   18.5099    5.5473 O   0  0  0  0  0  0  0  0  0  0  0  0
   19.1800   17.1949   12.0481 O   0  5  0  0  0  0  0  0  0  0  0  0
   19.3269   15.3740   10.4919 O   0  5  0  0  0  0  0  0  0  0  0  0
   17.5829   17.2030   10.2270 O   0  0  0  0  0  0  0  0  0  0  0  0
   18.9951   16.8719   10.7399 P   0  0  0  0  0  0  0  0  0  0  0  0
   21.1611   17.5980    9.9830 H   0  0  0  0  0  0  0  0  0  0  0  0
   20.0920   18.8191    9.8502 H   0  0  0  0  0  0  0  0  0  0  0  0
   20.5301   14.7509    4.7310 H   0  0  0  0  0  0  0  0  0  0  0  0
   18.5960   18.9331    7.9190 H   0  0  0  0  0  0  0  0  0  0  0  0
   21.7101   15.6499    9.2329 H   0  0  0  0  0  0  0  0  0  0  0  0
   17.3351   18.1539   10.4427 H   0  0  0  0  0  0  0  0  0  0  0  0
   19.0636   16.5453    4.1927 C   0  0  0  0  0  0  0  0  0  0  0  0
   22.0261   13.3037    5.8818 H   0  0  0  0  0  0  0  0  0  0  0  0
   22.6174   13.7553    8.1206 H   0  0  0  0  0  0  0  0  0  0  0  0
   18.3145   17.3594    3.7279 H   0  0  0  0  0  0  0  0  0  0  0  0
   20.0501   16.5193    3.5104 H   0  0  0  0  0  0  0  0  0  0  0  0
   18.5212   15.4749    4.1657 H   0  0  0  0  0  0  0  0  0  0  0  0
  1  2  2  0
  1 10  1  0
  2  3  1  0
  3  8  2  0
  3 11  1  0
  4  5  1  0
  4 11  1  0
  4 12  2  0
  5  6  2  0
  6  7  1  0
  6  8  1  0
  7 16  1  0
  8  9  1  0
  9 10  2  0
 11 23  1  0
 13 16  1  0
 14 16  1  0
 15 16  1  0
  1 24  1  0
  2 19  1  0
  5 20  1  0
  7 17  1  0
  7 18  1  0
  9 21  1  0
 10 25  1  0
 15 22  1  0
 23 26  1  0
 23 27  1  0
 23 28  1  0
M  CHG  2  13  -1  14  -1
M  END
>  <Favorite_cresset>
false

>  <Protein_cresset>
6D15_P

>  <MW_cresset>
252.2

>  <#Atoms_cresset>
17

>  <SlogP_cresset>
1.2

>  <TPSA_cresset>
86.7

>  <Flexibility_cresset>
3

>  <#RB_cresset>
3

>  <Rof5_cresset>
0

>  <Confs_cresset>
0

>  <Poses_cresset>
0

>  <Activity (Primary)_cresset>
No Primary Activity Set

$$$$
