ligand_10
  xed2sdf           3D
 
 27 28  0  0  0  0  0  0  0  0999 V2000
   22.1751   12.8679    5.6221 C   0  0  0  0  0  0  0  0  0  0  0  0
   21.6591   14.1121    6.3421 C   0  0  0  0  0  0  0  0  0  0  0  0
   20.7988   14.9550    5.6719 C   0  0  0  0  0  0  0  0  0  0  0  0
   20.2999   16.1042    6.3161 C   0  0  0  0  0  0  0  0  0  0  0  0
   18.8319   17.9019    6.1690 C   0  0  0  0  0  0  0  0  0  0  0  0
   19.1060   18.1962    7.4760 C   0  0  0  0  0  0  0  0  0  0  0  0
   20.0540   17.5201    8.2050 C   0  0  0  0  0  0  0  0  0  0  0  0
   20.2320   17.8401    9.7020 C   0  0  0  0  0  0  0  0  0  0  0  0
   20.6098   16.3500    7.5859 C   0  0  0  0  0  0  0  0  0  0  0  0
   21.4759   15.4720    8.2769 C   0  0  0  0  0  0  0  0  0  0  0  0
   21.9981   14.3712    7.6340 C   0  0  0  0  0  0  0  0  0  0  0  0
   19.4320   16.8780    5.5869 O   0  0  0  0  0  0  0  0  0  0  0  0
   18.0859   18.5099    5.5470 O   0  0  0  0  0  0  0  0  0  0  0  0
   19.1800   17.1949   12.0479 O   0  5  0  0  0  0  0  0  0  0  0  0
   19.3270   15.3740   10.4919 O   0  5  0  0  0  0  0  0  0  0  0  0
   17.5829   17.2030   10.2270 O   0  0  0  0  0  0  0  0  0  0  0  0
   18.9951   16.8720   10.7400 P   0  0  0  0  0  0  0  0  0  0  0  0
   21.6571   12.7281    4.7781 H   0  0  0  0  0  0  0  0  0  0  0  0
   23.1420   12.9861    5.3949 H   0  0  0  0  0  0  0  0  0  0  0  0
   22.0642   12.0748    6.2221 H   0  0  0  0  0  0  0  0  0  0  0  0
   21.1610   17.5978    9.9831 H   0  0  0  0  0  0  0  0  0  0  0  0
   20.0919   18.8189    9.8501 H   0  0  0  0  0  0  0  0  0  0  0  0
   20.5301   14.7510    4.7311 H   0  0  0  0  0  0  0  0  0  0  0  0
   18.5959   18.9330    7.9192 H   0  0  0  0  0  0  0  0  0  0  0  0
   21.8465   15.6673    9.5459 F   0  0  0  0  0  0  0  0  0  0  0  0
   17.3350   18.1538   10.4425 H   0  0  0  0  0  0  0  0  0  0  0  0
   22.6155   13.7518    8.1202 H   0  0  0  0  0  0  0  0  0  0  0  0
  1  2  1  0
  2  3  2  0
  2 11  1  0
  3  4  1  0
  4  9  2  0
  4 12  1  0
  5  6  1  0
  5 12  1  0
  5 13  2  0
  6  7  2  0
  7  8  1  0
  7  9  1  0
  8 17  1  0
  9 10  1  0
 10 11  2  0
 10 25  1  0
 14 17  1  0
 15 17  1  0
 16 17  1  0
  1 18  1  0
  1 19  1  0
  1 20  1  0
  3 23  1  0
  6 24  1  0
  8 21  1  0
  8 22  1  0
 11 27  1  0
 16 26  1  0
M  CHG  2  14  -1  15  -1
M  END
>  <Favorite_cresset>
false

>  <Protein_cresset>
6D15_P

>  <MW_cresset>
271.2

>  <#Atoms_cresset>
18

>  <SlogP_cresset>
1.8

>  <TPSA_cresset>
92.6

>  <Flexibility_cresset>
3

>  <#RB_cresset>
3

>  <Rof5_cresset>
0

>  <Confs_cresset>
0

>  <Poses_cresset>
0

>  <Activity (Primary)_cresset>
No Primary Activity Set

$$$$
