ligand_5
  xed2sdf           3D
 
 27 28  0  0  0  0  0  0  0  0999 V2000
   21.6590   14.1121    6.3420 C   0  0  0  0  0  0  0  0  0  0  0  0
   20.7990   14.9550    5.6718 C   0  0  0  0  0  0  0  0  0  0  0  0
   20.3000   16.1041    6.3160 C   0  0  0  0  0  0  0  0  0  0  0  0
   18.8321   17.9019    6.1688 C   0  0  0  0  0  0  0  0  0  0  0  0
   19.1060   18.1960    7.4760 C   0  0  0  0  0  0  0  0  0  0  0  0
   20.0540   17.5200    8.2052 C   0  0  0  0  0  0  0  0  0  0  0  0
   20.2320   17.8399    9.7021 C   0  0  0  0  0  0  0  0  0  0  0  0
   20.6098   16.3500    7.5860 C   0  0  0  0  0  0  0  0  0  0  0  0
   21.4759   15.4720    8.2769 C   0  0  0  0  0  0  0  0  0  0  0  0
   21.9980   14.3712    7.6340 C   0  0  0  0  0  0  0  0  0  0  0  0
   22.9550   13.4409    8.3760 C   0  0  0  0  0  0  0  0  0  0  0  0
   19.4321   16.8780    5.5870 O   0  0  0  0  0  0  0  0  0  0  0  0
   18.0860   18.5099    5.5470 O   0  0  0  0  0  0  0  0  0  0  0  0
   19.1800   17.1949   12.0480 O   0  5  0  0  0  0  0  0  0  0  0  0
   19.3269   15.3741   10.4919 O   0  5  0  0  0  0  0  0  0  0  0  0
   17.5830   17.2030   10.2270 O   0  0  0  0  0  0  0  0  0  0  0  0
   18.9951   16.8720   10.7400 P   0  0  0  0  0  0  0  0  0  0  0  0
   22.5710   12.5178    8.4092 H   0  0  0  0  0  0  0  0  0  0  0  0
   21.1610   17.5979    9.9831 H   0  0  0  0  0  0  0  0  0  0  0  0
   20.0920   18.8190    9.8501 H   0  0  0  0  0  0  0  0  0  0  0  0
   23.8340   13.4100    7.9002 H   0  0  0  0  0  0  0  0  0  0  0  0
   23.0881   13.7850    9.3060 H   0  0  0  0  0  0  0  0  0  0  0  0
   20.5300   14.7511    4.7310 H   0  0  0  0  0  0  0  0  0  0  0  0
   18.5959   18.9330    7.9191 H   0  0  0  0  0  0  0  0  0  0  0  0
   21.7101   15.6499    9.2329 H   0  0  0  0  0  0  0  0  0  0  0  0
   17.3351   18.1539   10.4426 H   0  0  0  0  0  0  0  0  0  0  0  0
   22.0275   13.3047    5.8810 H   0  0  0  0  0  0  0  0  0  0  0  0
  1  2  2  0
  1 10  1  0
  2  3  1  0
  3  8  2  0
  3 12  1  0
  4  5  1  0
  4 12  1  0
  4 13  2  0
  5  6  2  0
  6  7  1  0
  6  8  1  0
  7 17  1  0
  8  9  1  0
  9 10  2  0
 10 11  1  0
 14 17  1  0
 15 17  1  0
 16 17  1  0
  1 27  1  0
  2 23  1  0
  5 24  1  0
  7 19  1  0
  7 20  1  0
  9 25  1  0
 11 18  1  0
 11 21  1  0
 11 22  1  0
 16 26  1  0
M  CHG  2  14  -1  15  -1
M  END
>  <Favorite_cresset>
false

>  <Protein_cresset>
6D15_P

>  <MW_cresset>
253.2

>  <#Atoms_cresset>
17

>  <SlogP_cresset>
1.4

>  <TPSA_cresset>
92.6

>  <Flexibility_cresset>
3

>  <#RB_cresset>
3

>  <Rof5_cresset>
0

>  <Confs_cresset>
0

>  <Poses_cresset>
0

>  <Activity (Primary)_cresset>
No Primary Activity Set

$$$$
