ligand_9
  xed2sdf           3D
 
 27 28  0  0  0  0  0  0  0  0999 V2000
   22.1750   12.8680    5.6221 C   0  0  0  0  0  0  0  0  0  0  0  0
   21.6591   14.1121    6.3420 C   0  0  0  0  0  0  0  0  0  0  0  0
   20.7990   14.9551    5.6718 C   0  0  0  0  0  0  0  0  0  0  0  0
   20.3000   16.1041    6.3160 C   0  0  0  0  0  0  0  0  0  0  0  0
   18.8320   17.9018    6.1691 C   0  0  0  0  0  0  0  0  0  0  0  0
   19.1060   18.1961    7.4759 C   0  0  0  0  0  0  0  0  0  0  0  0
   20.0540   17.5201    8.2050 C   0  0  0  0  0  0  0  0  0  0  0  0
   20.2320   17.8399    9.7019 C   0  0  0  0  0  0  0  0  0  0  0  0
   20.6099   16.3499    7.5859 C   0  0  0  0  0  0  0  0  0  0  0  0
   21.4759   15.4720    8.2770 C   0  0  0  0  0  0  0  0  0  0  0  0
   21.9979   14.3710    7.6339 C   0  0  0  0  0  0  0  0  0  0  0  0
   19.4321   16.8780    5.5868 O   0  0  0  0  0  0  0  0  0  0  0  0
   18.0859   18.5100    5.5470 O   0  0  0  0  0  0  0  0  0  0  0  0
   19.1800   17.1950   12.0480 O   0  5  0  0  0  0  0  0  0  0  0  0
   19.3270   15.3741   10.4919 O   0  5  0  0  0  0  0  0  0  0  0  0
   17.5830   17.2030   10.2271 O   0  0  0  0  0  0  0  0  0  0  0  0
   18.9951   16.8721   10.7399 P   0  0  0  0  0  0  0  0  0  0  0  0
   21.6570   12.7281    4.7780 H   0  0  0  0  0  0  0  0  0  0  0  0
   23.1420   12.9861    5.3950 H   0  0  0  0  0  0  0  0  0  0  0  0
   22.0641   12.0749    6.2221 H   0  0  0  0  0  0  0  0  0  0  0  0
   21.1609   17.5978    9.9829 H   0  0  0  0  0  0  0  0  0  0  0  0
   20.0920   18.8190    9.8500 H   0  0  0  0  0  0  0  0  0  0  0  0
   20.5300   14.7511    4.7309 H   0  0  0  0  0  0  0  0  0  0  0  0
   18.5960   18.9331    7.9189 H   0  0  0  0  0  0  0  0  0  0  0  0
   22.1176   15.7179   10.0318 Br  0  0  0  0  0  0  0  0  0  0  0  0
   17.3352   18.1539   10.4424 H   0  0  0  0  0  0  0  0  0  0  0  0
   22.6244   13.7602    8.1182 H   0  0  0  0  0  0  0  0  0  0  0  0
  1  2  1  0
  2  3  2  0
  2 11  1  0
  3  4  1  0
  4  9  2  0
  4 12  1  0
  5  6  1  0
  5 12  1  0
  5 13  2  0
  6  7  2  0
  7  8  1  0
  7  9  1  0
  8 17  1  0
  9 10  1  0
 10 11  2  0
 10 25  1  0
 14 17  1  0
 15 17  1  0
 16 17  1  0
  1 18  1  0
  1 19  1  0
  1 20  1  0
  3 23  1  0
  6 24  1  0
  8 21  1  0
  8 22  1  0
 11 27  1  0
 16 26  1  0
M  CHG  2  14  -1  15  -1
M  END
>  <Favorite_cresset>
false

>  <Protein_cresset>
6D15_P

>  <MW_cresset>
332.1

>  <#Atoms_cresset>
18

>  <SlogP_cresset>
2.2

>  <TPSA_cresset>
92.6

>  <Flexibility_cresset>
3

>  <#RB_cresset>
3

>  <Rof5_cresset>
0

>  <Confs_cresset>
0

>  <Poses_cresset>
0

>  <Activity (Primary)_cresset>
No Primary Activity Set

$$$$
