ligand_16
  xed2sdf           3D
 
 25 26  0  0  0  0  0  0  0  0999 V2000
   22.3180   12.5799    5.4750 Br  0  0  0  0  0  0  0  0  0  0  0  0
   21.6590   14.1121    6.3419 C   0  0  0  0  0  0  0  0  0  0  0  0
   20.7990   14.9551    5.6720 C   0  0  0  0  0  0  0  0  0  0  0  0
   20.2999   16.1041    6.3161 C   0  0  0  0  0  0  0  0  0  0  0  0
   18.8320   17.9018    6.1689 C   0  0  0  0  0  0  0  0  0  0  0  0
   19.1059   18.1959    7.4760 C   0  0  0  0  0  0  0  0  0  0  0  0
   20.0539   17.5200    8.2051 C   0  0  0  0  0  0  0  0  0  0  0  0
   20.2320   17.8398    9.7021 C   0  0  0  0  0  0  0  0  0  0  0  0
   20.6099   16.3501    7.5860 C   0  0  0  0  0  0  0  0  0  0  0  0
   21.4760   15.4720    8.2769 C   0  0  0  0  0  0  0  0  0  0  0  0
   21.9980   14.3709    7.6340 C   0  0  0  0  0  0  0  0  0  0  0  0
   19.4320   16.8779    5.5869 N   0  0  0  0  0  0  0  0  0  0  0  0
   18.0860   18.5099    5.5471 O   0  0  0  0  0  0  0  0  0  0  0  0
   19.1800   17.1950   12.0480 O   0  5  0  0  0  0  0  0  0  0  0  0
   19.3268   15.3741   10.4920 O   0  5  0  0  0  0  0  0  0  0  0  0
   17.5830   17.2030   10.2270 O   0  0  0  0  0  0  0  0  0  0  0  0
   18.9950   16.8719   10.7400 P   0  0  0  0  0  0  0  0  0  0  0  0
   21.1611   17.5979    9.9828 H   0  0  0  0  0  0  0  0  0  0  0  0
   20.0922   18.8190    9.8499 H   0  0  0  0  0  0  0  0  0  0  0  0
   20.5300   14.7510    4.7312 H   0  0  0  0  0  0  0  0  0  0  0  0
   18.5959   18.9330    7.9190 H   0  0  0  0  0  0  0  0  0  0  0  0
   22.1039   15.7189   10.0374 Br  0  0  0  0  0  0  0  0  0  0  0  0
   17.3351   18.1539   10.4427 H   0  0  0  0  0  0  0  0  0  0  0  0
   22.6148   13.7534    8.1219 H   0  0  0  0  0  0  0  0  0  0  0  0
   19.2616   16.6863    4.7434 H   0  0  0  0  0  0  0  0  0  0  0  0
  1  2  1  0
  2  3  2  0
  2 11  1  0
  3  4  1  0
  4  9  2  0
  4 12  1  0
  5  6  1  0
  5 12  1  0
  5 13  2  0
  6  7  2  0
  7  8  1  0
  7  9  1  0
  8 17  1  0
  9 10  1  0
 10 11  2  0
 10 22  1  0
 14 17  1  0
 15 17  1  0
 16 17  1  0
  3 20  1  0
  6 21  1  0
  8 18  1  0
  8 19  1  0
 11 24  1  0
 12 25  1  0
 16 23  1  0
M  CHG  2  14  -1  15  -1
M  END
>  <Favorite_cresset>
false

>  <Protein_cresset>
6D15_P

>  <MW_cresset>
396

>  <#Atoms_cresset>
18

>  <SlogP_cresset>
2.8

>  <TPSA_cresset>
95.4

>  <Flexibility_cresset>
3

>  <#RB_cresset>
3

>  <Rof5_cresset>
0

>  <Confs_cresset>
0

>  <Poses_cresset>
0

>  <Activity (Primary)_cresset>
No Primary Activity Set

$$$$
