ligand_13
  xed2sdf           3D
 
 31 32  0  0  0  0  0  0  0  0999 V2000
   22.1749   12.8681    5.6222 C   0  0  0  0  0  0  0  0  0  0  0  0
   21.6589   14.1122    6.3419 C   0  0  0  0  0  0  0  0  0  0  0  0
   20.7990   14.9551    5.6717 C   0  0  0  0  0  0  0  0  0  0  0  0
   20.3001   16.1041    6.3160 C   0  0  0  0  0  0  0  0  0  0  0  0
   18.8321   17.9019    6.1689 C   0  0  0  0  0  0  0  0  0  0  0  0
   19.1059   18.1961    7.4758 C   0  0  0  0  0  0  0  0  0  0  0  0
   20.0540   17.5201    8.2051 C   0  0  0  0  0  0  0  0  0  0  0  0
   20.2321   17.8399    9.7020 C   0  0  0  0  0  0  0  0  0  0  0  0
   20.6099   16.3500    7.5860 C   0  0  0  0  0  0  0  0  0  0  0  0
   21.4759   15.4721    8.2769 C   0  0  0  0  0  0  0  0  0  0  0  0
   21.9981   14.3712    7.6340 C   0  0  0  0  0  0  0  0  0  0  0  0
   19.4320   16.8779    5.5871 N   0  0  0  0  0  0  0  0  0  0  0  0
   18.0858   18.5099    5.5471 O   0  0  0  0  0  0  0  0  0  0  0  0
   19.1801   17.1950   12.0480 O   0  5  0  0  0  0  0  0  0  0  0  0
   19.3270   15.3741   10.4921 O   0  5  0  0  0  0  0  0  0  0  0  0
   17.5828   17.2029   10.2270 O   0  0  0  0  0  0  0  0  0  0  0  0
   18.9950   16.8721   10.7398 P   0  0  0  0  0  0  0  0  0  0  0  0
   21.6570   12.7282    4.7781 H   0  0  0  0  0  0  0  0  0  0  0  0
   23.1421   12.9861    5.3951 H   0  0  0  0  0  0  0  0  0  0  0  0
   22.0642   12.0749    6.2221 H   0  0  0  0  0  0  0  0  0  0  0  0
   21.1610   17.5980    9.9829 H   0  0  0  0  0  0  0  0  0  0  0  0
   20.0920   18.8190    9.8501 H   0  0  0  0  0  0  0  0  0  0  0  0
   20.5301   14.7511    4.7309 H   0  0  0  0  0  0  0  0  0  0  0  0
   18.5960   18.9329    7.9191 H   0  0  0  0  0  0  0  0  0  0  0  0
   22.1807   15.5057    9.6443 C   0  0  0  0  0  0  0  0  0  0  0  0
   17.3351   18.1540   10.4428 H   0  0  0  0  0  0  0  0  0  0  0  0
   22.6187   13.7473    8.1115 H   0  0  0  0  0  0  0  0  0  0  0  0
   19.2616   16.6862    4.7434 H   0  0  0  0  0  0  0  0  0  0  0  0
   23.1688   16.1640    9.4713 H   0  0  0  0  0  0  0  0  0  0  0  0
   22.5493   14.4172    9.9940 H   0  0  0  0  0  0  0  0  0  0  0  0
   21.6890   15.9259   10.6457 H   0  0  0  0  0  0  0  0  0  0  0  0
  1  2  1  0
  2  3  2  0
  2 11  1  0
  3  4  1  0
  4  9  2  0
  4 12  1  0
  5  6  1  0
  5 12  1  0
  5 13  2  0
  6  7  2  0
  7  8  1  0
  7  9  1  0
  8 17  1  0
  9 10  1  0
 10 11  2  0
 10 25  1  0
 14 17  1  0
 15 17  1  0
 16 17  1  0
  1 18  1  0
  1 19  1  0
  1 20  1  0
  3 23  1  0
  6 24  1  0
  8 21  1  0
  8 22  1  0
 11 27  1  0
 12 28  1  0
 16 26  1  0
 25 29  1  0
 25 30  1  0
 25 31  1  0
M  CHG  2  14  -1  15  -1
M  END
>  <Favorite_cresset>
false

>  <Protein_cresset>
6D15_P

>  <MW_cresset>
266.2

>  <#Atoms_cresset>
18

>  <SlogP_cresset>
1.7

>  <TPSA_cresset>
95.4

>  <Flexibility_cresset>
3

>  <#RB_cresset>
3

>  <Rof5_cresset>
0

>  <Confs_cresset>
0

>  <Poses_cresset>
0

>  <Activity (Primary)_cresset>
No Primary Activity Set

$$$$
