ligand_2
  xed2sdf           3D
 
 28 29  0  0  0  0  0  0  0  0999 V2000
   22.1572   13.0093    5.7731 O   0  0  0  0  0  0  0  0  0  0  0  0
   21.6591   14.1121    6.3420 C   0  0  0  0  0  0  0  0  0  0  0  0
   20.7990   14.9550    5.6718 C   0  0  0  0  0  0  0  0  0  0  0  0
   20.2998   16.1039    6.3162 C   0  0  0  0  0  0  0  0  0  0  0  0
   18.8319   17.9020    6.1689 C   0  0  0  0  0  0  0  0  0  0  0  0
   19.1059   18.1960    7.4761 C   0  0  0  0  0  0  0  0  0  0  0  0
   20.0540   17.5201    8.2053 C   0  0  0  0  0  0  0  0  0  0  0  0
   20.2321   17.8399    9.7022 C   0  0  0  0  0  0  0  0  0  0  0  0
   20.6099   16.3500    7.5861 C   0  0  0  0  0  0  0  0  0  0  0  0
   21.4759   15.4720    8.2770 C   0  0  0  0  0  0  0  0  0  0  0  0
   21.9980   14.3711    7.6339 C   0  0  0  0  0  0  0  0  0  0  0  0
   19.4319   16.8780    5.5870 O   0  0  0  0  0  0  0  0  0  0  0  0
   18.0860   18.5101    5.5471 O   0  0  0  0  0  0  0  0  0  0  0  0
   19.1801   17.1949   12.0481 O   0  5  0  0  0  0  0  0  0  0  0  0
   19.3269   15.3741   10.4920 O   0  5  0  0  0  0  0  0  0  0  0  0
   17.5830   17.2031   10.2269 O   0  0  0  0  0  0  0  0  0  0  0  0
   18.9951   16.8722   10.7399 P   0  0  0  0  0  0  0  0  0  0  0  0
   21.1611   17.5979    9.9831 H   0  0  0  0  0  0  0  0  0  0  0  0
   20.0919   18.8191    9.8501 H   0  0  0  0  0  0  0  0  0  0  0  0
   20.5302   14.7511    4.7309 H   0  0  0  0  0  0  0  0  0  0  0  0
   18.5959   18.9330    7.9190 H   0  0  0  0  0  0  0  0  0  0  0  0
   21.7100   15.6499    9.2330 H   0  0  0  0  0  0  0  0  0  0  0  0
   17.3351   18.1538   10.4426 H   0  0  0  0  0  0  0  0  0  0  0  0
   21.7885   12.6901    4.4144 C   0  0  0  0  0  0  0  0  0  0  0  0
   22.6150   13.7535    8.1219 H   0  0  0  0  0  0  0  0  0  0  0  0
   20.5998   12.5408    4.3370 H   0  0  0  0  0  0  0  0  0  0  0  0
   22.1385   13.5726    3.6795 H   0  0  0  0  0  0  0  0  0  0  0  0
   22.3287   11.6708    4.0827 H   0  0  0  0  0  0  0  0  0  0  0  0
  1  2  1  0
  1 24  1  0
  2  3  2  0
  2 11  1  0
  3  4  1  0
  4  9  2  0
  4 12  1  0
  5  6  1  0
  5 12  1  0
  5 13  2  0
  6  7  2  0
  7  8  1  0
  7  9  1  0
  8 17  1  0
  9 10  1  0
 10 11  2  0
 14 17  1  0
 15 17  1  0
 16 17  1  0
  3 20  1  0
  6 21  1  0
  8 18  1  0
  8 19  1  0
 10 22  1  0
 11 25  1  0
 16 23  1  0
 24 26  1  0
 24 27  1  0
 24 28  1  0
M  CHG  2  14  -1  15  -1
M  END
>  <Favorite_cresset>
false

>  <Protein_cresset>
6D15_P

>  <MW_cresset>
269.2

>  <#Atoms_cresset>
18

>  <SlogP_cresset>
1.1

>  <TPSA_cresset>
101.9

>  <Flexibility_cresset>
3.5

>  <#RB_cresset>
4

>  <Rof5_cresset>
0

>  <Confs_cresset>
0

>  <Poses_cresset>
0

>  <Activity (Primary)_cresset>
No Primary Activity Set

$$$$
