@<TRIPOS>MOLECULE
MOL
   26    27     1     0     0
SMALL
bcc


@<TRIPOS>ATOM
      1 C1          15.3590    -1.0030     9.0020 ca         1 MOL      -0.091300
      2 C2          16.5550    -0.3770     8.7260 ca         1 MOL      -0.196000
      3 C3          16.5540     0.9810     8.4700 ca         1 MOL      -0.080000
      4 C4          14.2000    -0.2480     9.0150 ca         1 MOL      -0.203000
      5 C5          14.2150     1.1420     8.7510 ca         1 MOL       0.165100
      6 C6          15.3910     1.8330     8.4650 ca         1 MOL      -0.100800
      7 C7          15.2630     3.2500     8.2160 cc         1 MOL       0.122600
      8 C8          16.3300     4.2960     7.8630 c3         1 MOL       0.026600
      9 C9          13.9850     3.7940     8.2820 cd         1 MOL      -0.527200
     10 C10         12.8750     3.0230     8.5740 c          1 MOL       0.729800
     11 O1          13.0110     1.7370     8.7990 os         1 MOL      -0.389200
     12 O2          17.3480     3.1590     5.5400 o          1 MOL      -0.824500
     13 O3          17.3180     5.6220     5.6220 o          1 MOL      -0.824500
     14 O4          15.2290     4.3560     5.3220 o          1 MOL      -0.824500
     15 O5          11.8030     3.5240     8.6220 o          1 MOL      -0.768500
     16 P1          16.5710     4.3660     6.0100 p5         1 MOL       1.055700
     17 C11         15.2700    -2.3110     9.2620 c3         1 MOL      -0.030800
     18 H1          16.0390     5.1930     8.1960 hc         1 MOL       0.082200
     19 H2          17.1950     4.0510     8.3020 hc         1 MOL       0.082200
     20 H3          17.4090    -0.8970     8.7110 ha         1 MOL       0.106000
     21 H4          13.3290    -0.6960     9.2160 ha         1 MOL       0.117000
     22 H5          13.8650     4.7720     8.1130 ha         1 MOL       0.130000
     23 H6          17.4360     1.4090     8.2720 ha         1 MOL       0.185000
     24 H7          14.1400    -2.7160     9.3140 hc         1 MOL       0.018700
     25 H8          15.8020    -2.5300    10.3150 hc         1 MOL       0.018700
     26 H9          15.8440    -2.9300     8.4080 hc         1 MOL       0.018700
@<TRIPOS>BOND
     1     1     2 ar  
     2     1     4 ar  
     3     1    17 1   
     4     2     3 ar  
     5     3     6 ar  
     6     4     5 ar  
     7     5     6 ar  
     8     5    11 1   
     9     6     7 1   
    10     7     8 1   
    11     7     9 2   
    12     8    16 1   
    13     9    10 1   
    14    10    11 1   
    15    10    15 2   
    16    12    16 1   
    17    13    16 1   
    18    14    16 1   
    19     2    20 1   
    20     3    23 1   
    21     4    21 1   
    22     8    18 1   
    23     8    19 1   
    24     9    22 1   
    25    17    24 1   
    26    17    25 1   
    27    17    26 1   
@<TRIPOS>SUBSTRUCTURE
     1 MOL         1 TEMP              0 ****  ****    0 ROOT
