@<TRIPOS>MOLECULE
MOL
   23    24     1     0     0
SMALL
bcc


@<TRIPOS>ATOM
      1 C1          15.3590    -1.0030     9.0020 ca         1 MOL       0.140900
      2 C2          16.5550    -0.3770     8.7260 ca         1 MOL      -0.287000
      3 C3          16.5540     0.9810     8.4700 ca         1 MOL       0.187900
      4 C4          14.2000    -0.2480     9.0150 ca         1 MOL      -0.264000
      5 C5          14.2150     1.1420     8.7510 ca         1 MOL       0.220100
      6 C6          15.3910     1.8330     8.4650 ca         1 MOL      -0.126800
      7 C7          15.2630     3.2500     8.2160 cc         1 MOL       0.088600
      8 C8          16.3300     4.2960     7.8630 c3         1 MOL       0.094600
      9 C9          13.9850     3.7940     8.2820 cd         1 MOL      -0.524200
     10 C10         12.8750     3.0230     8.5740 c          1 MOL       0.723800
     11 O1          13.0110     1.7370     8.7990 os         1 MOL      -0.385200
     12 O2          17.3480     3.1590     5.5400 o          1 MOL      -0.814833
     13 O3          17.3180     5.6220     5.6220 o          1 MOL      -0.814833
     14 O4          15.2290     4.3560     5.3220 o          1 MOL      -0.814833
     15 O5          11.8030     3.5240     8.6220 o          1 MOL      -0.760500
     16 P1          16.5710     4.3660     6.0100 p5         1 MOL       1.032700
     17 F1          15.3250    -2.3140     9.2550 f          1 MOL      -0.177900
     18 F2          17.7280     1.5620     8.2070 f          1 MOL      -0.118900
     19 H1          16.0390     5.1930     8.1960 hc         1 MOL       0.092200
     20 H2          17.1950     4.0510     8.3020 hc         1 MOL       0.092200
     21 H3          17.4090    -0.8970     8.7110 ha         1 MOL       0.135000
     22 H4          13.3290    -0.6960     9.2160 ha         1 MOL       0.141000
     23 H5          13.8650     4.7720     8.1130 ha         1 MOL       0.139000
@<TRIPOS>BOND
     1     1     2 ar  
     2     1     4 ar  
     3     1    17 1   
     4     2     3 ar  
     5     3     6 ar  
     6     3    18 1   
     7     4     5 ar  
     8     5     6 ar  
     9     5    11 1   
    10     6     7 1   
    11     7     8 1   
    12     7     9 2   
    13     8    16 1   
    14     9    10 1   
    15    10    11 1   
    16    10    15 2   
    17    12    16 1   
    18    13    16 1   
    19    14    16 1   
    20     2    21 1   
    21     4    22 1   
    22     8    19 1   
    23     8    20 1   
    24     9    23 1   
@<TRIPOS>SUBSTRUCTURE
     1 MOL         1 TEMP              0 ****  ****    0 ROOT
