@<TRIPOS>MOLECULE
MOL
   30    31     1     0     0
SMALL
bcc


@<TRIPOS>ATOM
      1 C1          15.3590    -1.0030     9.0020 ca         1 MOL      -0.089300
      2 C2          16.5550    -0.3770     8.7260 ca         1 MOL      -0.189000
      3 C3          16.5540     0.9810     8.4700 ca         1 MOL      -0.073300
      4 C4          14.2000    -0.2480     9.0150 ca         1 MOL      -0.205000
      5 C5          14.2150     1.1420     8.7510 ca         1 MOL       0.168100
      6 C6          15.3910     1.8330     8.4650 ca         1 MOL      -0.079800
      7 C7          15.2630     3.2500     8.2160 cc         1 MOL       0.107600
      8 C8          16.3300     4.2960     7.8630 c3         1 MOL       0.067600
      9 C9          13.9850     3.7940     8.2820 cd         1 MOL      -0.535200
     10 C10         12.8750     3.0230     8.5740 c          1 MOL       0.727800
     11 O1          13.0110     1.7370     8.7990 os         1 MOL      -0.391200
     12 O2          17.3480     3.1590     5.5400 o          1 MOL      -0.819500
     13 O3          17.3180     5.6220     5.6220 o          1 MOL      -0.819500
     14 O4          15.2290     4.3560     5.3220 o          1 MOL      -0.819500
     15 O5          11.8030     3.5240     8.6220 o          1 MOL      -0.767500
     16 P1          16.5710     4.3660     6.0100 p5         1 MOL       1.042700
     17 C11         15.3310    -2.4900     9.2890 c3         1 MOL      -0.030800
     18 C12         17.9470     1.5500     8.2430 c3         1 MOL       0.146700
     19 H1          16.0390     5.1930     8.1960 hc         1 MOL       0.077200
     20 H2          17.1950     4.0510     8.3020 hc         1 MOL       0.077200
     21 H3          17.4090    -0.8970     8.7110 ha         1 MOL       0.123000
     22 H4          13.3290    -0.6960     9.2160 ha         1 MOL       0.121000
     23 H5          13.8650     4.7720     8.1130 ha         1 MOL       0.137000
     24 H6          14.2150    -2.9190     9.1850 hc         1 MOL       0.019700
     25 H7          15.7270    -2.6840    10.4050 hc         1 MOL       0.019700
     26 H8          16.0440    -3.0630     8.5120 hc         1 MOL       0.019700
     27 O6          18.9670     0.5580     8.0340 oh         1 MOL      -0.622800
     28 H9          17.9560     2.2420     7.2710 h1         1 MOL       0.100200
     29 H10         18.2640     2.1890     9.2080 h1         1 MOL       0.100200
     30 H11         19.8680     0.9830     7.8970 ho         1 MOL       0.385000
@<TRIPOS>BOND
     1     1     2 ar  
     2     1     4 ar  
     3     1    17 1   
     4     2     3 ar  
     5     3     6 ar  
     6     3    18 1   
     7     4     5 ar  
     8     5     6 ar  
     9     5    11 1   
    10     6     7 1   
    11     7     8 1   
    12     7     9 2   
    13     8    16 1   
    14     9    10 1   
    15    10    11 1   
    16    10    15 2   
    17    12    16 1   
    18    13    16 1   
    19    14    16 1   
    20    18    27 1   
    21     2    21 1   
    22     4    22 1   
    23     8    19 1   
    24     8    20 1   
    25     9    23 1   
    26    17    24 1   
    27    17    25 1   
    28    17    26 1   
    29    18    28 1   
    30    18    29 1   
    31    27    30 1   
@<TRIPOS>SUBSTRUCTURE
     1 MOL         1 TEMP              0 ****  ****    0 ROOT
