ligand_12
  xed2sdf           3D
 
 27 28  0  0  0  0  0  0  0  0999 V2000
   15.3591   -1.0029    9.0020 C   0  0  0  0  0  0  0  0  0  0  0  0
   16.5550   -0.3769    8.7260 C   0  0  0  0  0  0  0  0  0  0  0  0
   16.5540    0.9811    8.4700 C   0  0  0  0  0  0  0  0  0  0  0  0
   14.2000   -0.2480    9.0150 C   0  0  0  0  0  0  0  0  0  0  0  0
   14.2151    1.1419    8.7509 C   0  0  0  0  0  0  0  0  0  0  0  0
   15.3910    1.8330    8.4649 C   0  0  0  0  0  0  0  0  0  0  0  0
   15.2630    3.2501    8.2160 C   0  0  0  0  0  0  0  0  0  0  0  0
   16.3301    4.2960    7.8630 C   0  0  0  0  0  0  0  0  0  0  0  0
   13.9851    3.7940    8.2819 C   0  0  0  0  0  0  0  0  0  0  0  0
   12.8750    3.0230    8.5740 C   0  0  0  0  0  0  0  0  0  0  0  0
   13.0110    1.7371    8.7989 N   0  0  0  0  0  0  0  0  0  0  0  0
   17.3481    3.1589    5.5400 O   0  5  0  0  0  0  0  0  0  0  0  0
   17.3180    5.6220    5.6219 O   0  5  0  0  0  0  0  0  0  0  0  0
   15.2289    4.3560    5.3220 O   0  0  0  0  0  0  0  0  0  0  0  0
   11.8030    3.5241    8.6220 O   0  0  0  0  0  0  0  0  0  0  0  0
   16.5710    4.3660    6.0099 P   0  0  0  0  0  0  0  0  0  0  0  0
   16.0390    5.1931    8.1960 H   0  0  0  0  0  0  0  0  0  0  0  0
   17.1951    4.0510    8.3020 H   0  0  0  0  0  0  0  0  0  0  0  0
   17.4091   -0.8970    8.7110 H   0  0  0  0  0  0  0  0  0  0  0  0
   13.3289   -0.6961    9.2160 H   0  0  0  0  0  0  0  0  0  0  0  0
   13.8651    4.7719    8.1130 H   0  0  0  0  0  0  0  0  0  0  0  0
   11.7731    0.9840    9.1080 C   0  0  0  0  0  0  0  0  0  0  0  0
   15.3300   -1.9849    9.1900 H   0  0  0  0  0  0  0  0  0  0  0  0
   17.4360    1.4090    8.2721 H   0  0  0  0  0  0  0  0  0  0  0  0
   10.8130    1.7019    9.1010 H   0  0  0  0  0  0  0  0  0  0  0  0
   11.8480    0.4979   10.2030 H   0  0  0  0  0  0  0  0  0  0  0  0
   11.5901    0.1339    8.2801 H   0  0  0  0  0  0  0  0  0  0  0  0
  1  2  2  0
  1  4  1  0
  2  3  1  0
  3  6  2  0
  4  5  2  0
  5  6  1  0
  5 11  1  0
  6  7  1  0
  7  8  1  0
  7  9  2  0
  8 16  1  0
  9 10  1  0
 10 11  1  0
 10 15  2  0
 11 22  1  0
 12 16  1  0
 13 16  1  0
 14 16  2  0
  1 23  1  0
  2 19  1  0
  3 24  1  0
  4 20  1  0
  8 17  1  0
  8 18  1  0
  9 21  1  0
 22 25  1  0
 22 26  1  0
 22 27  1  0
M  CHG  2  12  -1  13  -1
M  END
>  <Favorite_cresset>
false

>  <MW_cresset>
251.2

>  <#Atoms_cresset>
17

>  <SlogP_cresset>
1.2

>  <TPSA_cresset>
89.5

>  <Flexibility_cresset>
2

>  <#RB_cresset>
2

>  <Rof5_cresset>
0

>  <Filename_cresset>
ligand_12.pdb

>  <Confs_cresset>
0

>  <Poses_cresset>
0

>  <Activity (Primary)_cresset>
No Primary Activity Set

$$$$
