ligand_7
  xed2sdf           3D
 
 30 31  0  0  0  0  0  0  0  0999 V2000
   15.3590   -1.0029    9.0019 C   0  0  0  0  0  0  0  0  0  0  0  0
   16.5550   -0.3769    8.7260 C   0  0  0  0  0  0  0  0  0  0  0  0
   16.5540    0.9811    8.4701 C   0  0  0  0  0  0  0  0  0  0  0  0
   14.2000   -0.2481    9.0150 C   0  0  0  0  0  0  0  0  0  0  0  0
   14.2149    1.1420    8.7509 C   0  0  0  0  0  0  0  0  0  0  0  0
   15.3910    1.8330    8.4650 C   0  0  0  0  0  0  0  0  0  0  0  0
   15.2631    3.2500    8.2160 C   0  0  0  0  0  0  0  0  0  0  0  0
   16.3300    4.2960    7.8630 C   0  0  0  0  0  0  0  0  0  0  0  0
   13.9849    3.7939    8.2819 C   0  0  0  0  0  0  0  0  0  0  0  0
   12.8750    3.0230    8.5739 C   0  0  0  0  0  0  0  0  0  0  0  0
   13.0109    1.7370    8.7990 O   0  0  0  0  0  0  0  0  0  0  0  0
   17.3480    3.1589    5.5401 O   0  5  0  0  0  0  0  0  0  0  0  0
   17.3180    5.6220    5.6220 O   0  5  0  0  0  0  0  0  0  0  0  0
   15.2290    4.3559    5.3221 O   0  0  0  0  0  0  0  0  0  0  0  0
   11.8031    3.5240    8.6219 O   0  0  0  0  0  0  0  0  0  0  0  0
   16.5710    4.3660    6.0100 P   0  0  0  0  0  0  0  0  0  0  0  0
   15.3310   -2.4899    9.2891 C   0  0  0  0  0  0  0  0  0  0  0  0
   17.9471    1.5499    8.2430 C   0  0  0  0  0  0  0  0  0  0  0  0
   16.0390    5.1930    8.1960 H   0  0  0  0  0  0  0  0  0  0  0  0
   17.1951    4.0511    8.3020 H   0  0  0  0  0  0  0  0  0  0  0  0
   17.4090   -0.8970    8.7109 H   0  0  0  0  0  0  0  0  0  0  0  0
   13.3291   -0.6960    9.2160 H   0  0  0  0  0  0  0  0  0  0  0  0
   13.8650    4.7720    8.1130 H   0  0  0  0  0  0  0  0  0  0  0  0
   14.2150   -2.9190    9.1850 H   0  0  0  0  0  0  0  0  0  0  0  0
   15.7270   -2.6839   10.4051 H   0  0  0  0  0  0  0  0  0  0  0  0
   16.0439   -3.0629    8.5120 H   0  0  0  0  0  0  0  0  0  0  0  0
   18.9670    0.5580    8.0340 O   0  0  0  0  0  0  0  0  0  0  0  0
   17.9560    2.2420    7.2710 H   0  0  0  0  0  0  0  0  0  0  0  0
   18.2640    2.1890    9.2080 H   0  0  0  0  0  0  0  0  0  0  0  0
   19.8680    0.9830    7.8969 H   0  0  0  0  0  0  0  0  0  0  0  0
  1  2  2  0
  1  4  1  0
  1 17  1  0
  2  3  1  0
  3  6  2  0
  3 18  1  0
  4  5  2  0
  5  6  1  0
  5 11  1  0
  6  7  1  0
  7  8  1  0
  7  9  2  0
  8 16  1  0
  9 10  1  0
 10 11  1  0
 10 15  2  0
 12 16  1  0
 13 16  1  0
 14 16  2  0
 18 27  1  0
  2 21  1  0
  4 22  1  0
  8 19  1  0
  8 20  1  0
  9 23  1  0
 17 24  1  0
 17 25  1  0
 17 26  1  0
 18 28  1  0
 18 29  1  0
 27 30  1  0
M  CHG  2  12  -1  13  -1
M  END
>  <Favorite_cresset>
false

>  <MW_cresset>
282.2

>  <#Atoms_cresset>
19

>  <SlogP_cresset>
1.3

>  <TPSA_cresset>
115.7

>  <Flexibility_cresset>
4

>  <#RB_cresset>
4

>  <Rof5_cresset>
0

>  <Filename_cresset>
ligand_7.pdb

>  <Confs_cresset>
0

>  <Poses_cresset>
0

>  <Activity (Primary)_cresset>
No Primary Activity Set

$$$$
