ligand_6
  xed2sdf           3D
 
 29 30  0  0  0  0  0  0  0  0999 V2000
   15.3590   -1.0030    9.0021 C   0  0  0  0  0  0  0  0  0  0  0  0
   16.5550   -0.3770    8.7261 C   0  0  0  0  0  0  0  0  0  0  0  0
   16.5541    0.9810    8.4700 C   0  0  0  0  0  0  0  0  0  0  0  0
   14.2000   -0.2480    9.0149 C   0  0  0  0  0  0  0  0  0  0  0  0
   14.2150    1.1419    8.7510 C   0  0  0  0  0  0  0  0  0  0  0  0
   15.3910    1.8330    8.4650 C   0  0  0  0  0  0  0  0  0  0  0  0
   15.2629    3.2500    8.2160 C   0  0  0  0  0  0  0  0  0  0  0  0
   16.3300    4.2960    7.8630 C   0  0  0  0  0  0  0  0  0  0  0  0
   13.9850    3.7941    8.2821 C   0  0  0  0  0  0  0  0  0  0  0  0
   12.8750    3.0231    8.5740 C   0  0  0  0  0  0  0  0  0  0  0  0
   13.0110    1.7371    8.7990 O   0  0  0  0  0  0  0  0  0  0  0  0
   17.3480    3.1589    5.5401 O   0  5  0  0  0  0  0  0  0  0  0  0
   17.3180    5.6221    5.6221 O   0  5  0  0  0  0  0  0  0  0  0  0
   15.2290    4.3560    5.3220 O   0  0  0  0  0  0  0  0  0  0  0  0
   11.8030    3.5241    8.6220 O   0  0  0  0  0  0  0  0  0  0  0  0
   16.5710    4.3660    6.0100 P   0  0  0  0  0  0  0  0  0  0  0  0
   15.3311   -2.4900    9.2890 C   0  0  0  0  0  0  0  0  0  0  0  0
   17.9470    1.5330    8.2230 C   0  0  0  0  0  0  0  0  0  0  0  0
   16.0389    5.1930    8.1960 H   0  0  0  0  0  0  0  0  0  0  0  0
   17.1950    4.0510    8.3020 H   0  0  0  0  0  0  0  0  0  0  0  0
   17.4090   -0.8970    8.7110 H   0  0  0  0  0  0  0  0  0  0  0  0
   13.3290   -0.6960    9.2160 H   0  0  0  0  0  0  0  0  0  0  0  0
   13.8650    4.7720    8.1131 H   0  0  0  0  0  0  0  0  0  0  0  0
   14.2150   -2.9190    9.1850 H   0  0  0  0  0  0  0  0  0  0  0  0
   15.7270   -2.6839   10.4049 H   0  0  0  0  0  0  0  0  0  0  0  0
   16.0440   -3.0631    8.5120 H   0  0  0  0  0  0  0  0  0  0  0  0
   18.7570    0.6650    8.0471 H   0  0  0  0  0  0  0  0  0  0  0  0
   17.9611    2.2219    7.2480 H   0  0  0  0  0  0  0  0  0  0  0  0
   18.2920    2.1679    9.1809 H   0  0  0  0  0  0  0  0  0  0  0  0
  1  2  2  0
  1  4  1  0
  1 17  1  0
  2  3  1  0
  3  6  2  0
  3 18  1  0
  4  5  2  0
  5  6  1  0
  5 11  1  0
  6  7  1  0
  7  8  1  0
  7  9  2  0
  8 16  1  0
  9 10  1  0
 10 11  1  0
 10 15  2  0
 12 16  1  0
 13 16  1  0
 14 16  2  0
  2 21  1  0
  4 22  1  0
  8 19  1  0
  8 20  1  0
  9 23  1  0
 17 24  1  0
 17 25  1  0
 17 26  1  0
 18 27  1  0
 18 28  1  0
 18 29  1  0
M  CHG  2  12  -1  13  -1
M  END
>  <Favorite_cresset>
false

>  <MW_cresset>
266.2

>  <#Atoms_cresset>
18

>  <SlogP_cresset>
1.7

>  <TPSA_cresset>
95.5

>  <Flexibility_cresset>
2

>  <#RB_cresset>
2

>  <Rof5_cresset>
0

>  <Filename_cresset>
ligand_6.pdb

>  <Confs_cresset>
0

>  <Poses_cresset>
0

>  <Activity (Primary)_cresset>
No Primary Activity Set

$$$$
