ligand_3
  xed2sdf           3D
 
 26 28  0  0  0  0  0  0  0  0999 V2000
   15.3480   -0.9719    8.9822 C   0  0  0  0  0  0  0  0  0  0  0  0
   16.5181   -0.3550    8.7089 C   0  0  0  0  0  0  0  0  0  0  0  0
   16.5540    0.9811    8.4700 C   0  0  0  0  0  0  0  0  0  0  0  0
   14.2000   -0.2480    9.0150 C   0  0  0  0  0  0  0  0  0  0  0  0
   14.2151    1.1419    8.7510 C   0  0  0  0  0  0  0  0  0  0  0  0
   15.3910    1.8330    8.4650 C   0  0  0  0  0  0  0  0  0  0  0  0
   15.2630    3.2500    8.2160 C   0  0  0  0  0  0  0  0  0  0  0  0
   16.3299    4.2960    7.8630 C   0  0  0  0  0  0  0  0  0  0  0  0
   13.9851    3.7941    8.2821 C   0  0  0  0  0  0  0  0  0  0  0  0
   12.8749    3.0230    8.5739 C   0  0  0  0  0  0  0  0  0  0  0  0
   13.0111    1.7370    8.7989 O   0  0  0  0  0  0  0  0  0  0  0  0
   17.3481    3.1591    5.5401 O   0  5  0  0  0  0  0  0  0  0  0  0
   17.3180    5.6220    5.6220 O   0  5  0  0  0  0  0  0  0  0  0  0
   15.2289    4.3561    5.3220 O   0  0  0  0  0  0  0  0  0  0  0  0
   11.8030    3.5240    8.6221 O   0  0  0  0  0  0  0  0  0  0  0  0
   16.5711    4.3660    6.0100 P   0  0  0  0  0  0  0  0  0  0  0  0
   15.5350   -2.2651    9.1660 O   0  0  0  0  0  0  0  0  0  0  0  0
   16.0390    5.1930    8.1960 H   0  0  0  0  0  0  0  0  0  0  0  0
   17.1949    4.0510    8.3020 H   0  0  0  0  0  0  0  0  0  0  0  0
   13.3291   -0.6961    9.2160 H   0  0  0  0  0  0  0  0  0  0  0  0
   13.8650    4.7719    8.1131 H   0  0  0  0  0  0  0  0  0  0  0  0
   16.9519   -2.5639    8.9780 C   0  0  0  0  0  0  0  0  0  0  0  0
   17.4360    1.4091    8.2720 H   0  0  0  0  0  0  0  0  0  0  0  0
   17.5069   -1.2400    8.7050 O   0  0  0  0  0  0  0  0  0  0  0  0
   17.1141   -3.2960    8.0410 H   0  0  0  0  0  0  0  0  0  0  0  0
   17.4270   -3.0290    9.9770 H   0  0  0  0  0  0  0  0  0  0  0  0
  1  2  2  0
  1  4  1  0
  1 17  1  0
  2  3  1  0
  2 24  1  0
  3  6  2  0
  4  5  2  0
  5  6  1  0
  5 11  1  0
  6  7  1  0
  7  8  1  0
  7  9  2  0
  8 16  1  0
  9 10  1  0
 10 11  1  0
 10 15  2  0
 12 16  1  0
 13 16  1  0
 14 16  2  0
 17 22  1  0
 22 24  1  0
  3 23  1  0
  4 20  1  0
  8 18  1  0
  8 19  1  0
  9 21  1  0
 22 25  1  0
 22 26  1  0
M  CHG  2  12  -1  13  -1
M  END
>  <Favorite_cresset>
false

>  <MW_cresset>
282.1

>  <#Atoms_cresset>
19

>  <SlogP_cresset>
0.8

>  <TPSA_cresset>
113.9

>  <Flexibility_cresset>
2

>  <#RB_cresset>
2

>  <Rof5_cresset>
0

>  <Filename_cresset>
ligand_3.pdb

>  <Confs_cresset>
0

>  <Poses_cresset>
0

>  <Activity (Primary)_cresset>
No Primary Activity Set

$$$$
