ligand_11
  xed2sdf           3D
 
 24 25  0  0  0  0  0  0  0  0999 V2000
   15.3591   -1.0030    9.0019 C   0  0  0  0  0  0  0  0  0  0  0  0
   16.5550   -0.3770    8.7260 C   0  0  0  0  0  0  0  0  0  0  0  0
   16.5541    0.9809    8.4700 C   0  0  0  0  0  0  0  0  0  0  0  0
   14.2000   -0.2480    9.0149 C   0  0  0  0  0  0  0  0  0  0  0  0
   14.2150    1.1419    8.7510 C   0  0  0  0  0  0  0  0  0  0  0  0
   15.3910    1.8330    8.4650 C   0  0  0  0  0  0  0  0  0  0  0  0
   15.2631    3.2500    8.2160 C   0  0  0  0  0  0  0  0  0  0  0  0
   16.3301    4.2961    7.8630 C   0  0  0  0  0  0  0  0  0  0  0  0
   13.9850    3.7941    8.2820 C   0  0  0  0  0  0  0  0  0  0  0  0
   12.8750    3.0230    8.5740 C   0  0  0  0  0  0  0  0  0  0  0  0
   13.0110    1.7370    8.7990 N   0  0  0  0  0  0  0  0  0  0  0  0
   17.3480    3.1589    5.5400 O   0  5  0  0  0  0  0  0  0  0  0  0
   17.3180    5.6220    5.6220 O   0  5  0  0  0  0  0  0  0  0  0  0
   15.2290    4.3560    5.3220 O   0  0  0  0  0  0  0  0  0  0  0  0
   11.8030    3.5240    8.6219 O   0  0  0  0  0  0  0  0  0  0  0  0
   16.5710    4.3660    6.0101 P   0  0  0  0  0  0  0  0  0  0  0  0
   16.0390    5.1930    8.1960 H   0  0  0  0  0  0  0  0  0  0  0  0
   17.1950    4.0511    8.3021 H   0  0  0  0  0  0  0  0  0  0  0  0
   17.4090   -0.8970    8.7111 H   0  0  0  0  0  0  0  0  0  0  0  0
   13.3291   -0.6960    9.2160 H   0  0  0  0  0  0  0  0  0  0  0  0
   13.8650    4.7720    8.1130 H   0  0  0  0  0  0  0  0  0  0  0  0
   12.2020    1.1890    9.0110 H   0  0  0  0  0  0  0  0  0  0  0  0
   15.3299   -1.9850    9.1900 H   0  0  0  0  0  0  0  0  0  0  0  0
   17.4360    1.4090    8.2720 H   0  0  0  0  0  0  0  0  0  0  0  0
  1  2  2  0
  1  4  1  0
  2  3  1  0
  3  6  2  0
  4  5  2  0
  5  6  1  0
  5 11  1  0
  6  7  1  0
  7  8  1  0
  7  9  2  0
  8 16  1  0
  9 10  1  0
 10 11  1  0
 10 15  2  0
 12 16  1  0
 13 16  1  0
 14 16  2  0
  1 23  1  0
  2 19  1  0
  3 24  1  0
  4 20  1  0
  8 17  1  0
  8 18  1  0
  9 21  1  0
 11 22  1  0
M  CHG  2  12  -1  13  -1
M  END
>  <Favorite_cresset>
false

>  <MW_cresset>
237.2

>  <#Atoms_cresset>
16

>  <SlogP_cresset>
1.1

>  <TPSA_cresset>
98.3

>  <Flexibility_cresset>
2

>  <#RB_cresset>
2

>  <Rof5_cresset>
0

>  <Filename_cresset>
ligand_11.pdb

>  <Confs_cresset>
0

>  <Poses_cresset>
0

>  <Activity (Primary)_cresset>
No Primary Activity Set

$$$$
